=== Job Info ===
job_name=va_s6_e1.0_v1.0_r21
host=schubert
pid=119745
scenario=6
early_rate=1.0
v2v_rate=1.0
run_id=21
config=/home/katagi/vehicle-assistant-system/scenarios/JIP/configs/config_scenario_6.toml
output_dir=/home/katagi/vehicle-assistant-system/schubert_logs/va_s6_e1.0_v1.0_r21
start=2026-07-13T01:54:57+0900
python_version=Python 3.12.3
sumo_version=Eclipse SUMO sumo Version v1_23_1+0435-630512a

=== Command ===
cd /home/katagi/vehicle-assistant-system/schubert_logs/va_s6_e1.0_v1.0_r21
PYTHONPATH=/home/katagi/vehicle-assistant-system:/home/katagi/tmp/sumo/tools:/home/katagi/local/sumo/tools:/home/katagi/tmp/sumo/tools:/home/katagi/local/sumo/tools:/home/katagi/tmp/sumo/tools:/home/katagi/local/sumo/tools: python3 -W ignore::UserWarning -m scenarios.JIP.1-1-4.simulation.runner_simulator --nogui /home/katagi/vehicle-assistant-system/scenarios/JIP/configs/config_scenario_6.toml 1.0 1.0
simulation_pid=119765
Step #0.00 (0ms ?*RT. ?UPS, TraCI: 336ms, vehicles TOT 1 ACT 1 BUF 0)                     Step #100.00 (0ms ?*RT. ?UPS, TraCI: 18ms, vehicles TOT 26 ACT 26 BUF 0)                  Step #200.00 (0ms ?*RT. ?UPS, TraCI: 36ms, vehicles TOT 51 ACT 51 BUF 0)                  Step #300.00 (1ms ~= 1000.00*RT, ~77000.00UPS, TraCI: 56ms, vehicles TOT 77 ACT 77 BUF 0) Step #400.00 (1ms ~= 1000.00*RT, ~104000.00UPS, TraCI: 73ms, vehicles TOT 104 ACT 104 BUF Step #500.00 (1ms ~= 1000.00*RT, ~131000.00UPS, TraCI: 1873ms, vehicles TOT 131 ACT 131 BUStep #600.00 (1ms ~= 1000.00*RT, ~158000.00UPS, TraCI: 1168ms, vehicles TOT 158 ACT 158 BUStep #700.00 (1ms ~= 1000.00*RT, ~186000.00UPS, TraCI: 521ms, vehicles TOT 186 ACT 186 BUFStep #800.00 (1ms ~= 1000.00*RT, ~209000.00UPS, TraCI: 342ms, vehicles TOT 209 ACT 209 BUFStep #900.00 (1ms ~= 1000.00*RT, ~210000.00UPS, TraCI: 1454ms, vehicles TOT 239 ACT 210 BUStep #1000.00 (1ms ~= 1000.00*RT, ~233000.00UPS, TraCI: 1145ms, vehicles TOT 279 ACT 233 BStep #1100.00 (1ms ~= 1000.00*RT, ~256000.00UPS, TraCI: 345ms, vehicles TOT 309 ACT 256 BUStep #1200.00 (1ms ~= 1000.00*RT, ~278000.00UPS, TraCI: 1327ms, vehicles TOT 344 ACT 278 BStep #1300.00 (1ms ~= 1000.00*RT, ~305000.00UPS, TraCI: 1171ms, vehicles TOT 381 ACT 305 BStep #1400.00 (1ms ~= 1000.00*RT, ~317000.00UPS, TraCI: 1722ms, vehicles TOT 406 ACT 317 BStep #1500.00 (1ms ~= 1000.00*RT, ~342000.00UPS, TraCI: 1975ms, vehicles TOT 448 ACT 342 BStep #1600.00 (1ms ~= 1000.00*RT, ~361000.00UPS, TraCI: 1684ms, vehicles TOT 488 ACT 361 BStep #1700.00 (1ms ~= 1000.00*RT, ~383000.00UPS, TraCI: 1012ms, vehicles TOT 517 ACT 383 BStep #1800.00 (1ms ~= 1000.00*RT, ~400000.00UPS, TraCI: 1124ms, vehicles TOT 534 ACT 400 BStep #1900.00 (1ms ~= 1000.00*RT, ~400000.00UPS, TraCI: 633ms, vehicles TOT 534 ACT 400 BUStep #2000.00 (1ms ~= 1000.00*RT, ~400000.00UPS, TraCI: 467ms, vehicles TOT 534 ACT 400 BUStep #2100.00 (0ms ?*RT. ?UPS, TraCI: 190ms, vehicles TOT 534 ACT 400 BUF 0)              Step #2200.00 (1ms ~= 1000.00*RT, ~400000.00UPS, TraCI: 112ms, vehicles TOT 534 ACT 400 BUStep #2300.00 (1ms ~= 1000.00*RT, ~400000.00UPS, TraCI: 98ms, vehicles TOT 534 ACT 400 BUFStep #2400.00 (0ms ?*RT. ?UPS, TraCI: 97ms, vehicles TOT 534 ACT 400 BUF 0)               Step #2500.00 (0ms ?*RT. ?UPS, TraCI: 82ms, vehicles TOT 534 ACT 400 BUF 0)               Step #2600.00 (0ms ?*RT. ?UPS, TraCI: 77ms, vehicles TOT 534 ACT 400 BUF 0)               Step #2700.00 (0ms ?*RT. ?UPS, TraCI: 77ms, vehicles TOT 534 ACT 400 BUF 0)               Step #2800.00 (0ms ?*RT. ?UPS, TraCI: 79ms, vehicles TOT 534 ACT 400 BUF 0)               Step #2900.00 (0ms ?*RT. ?UPS, TraCI: 77ms, vehicles TOT 534 ACT 400 BUF 0)               Step #3000.00 (0ms ?*RT. ?UPS, TraCI: 77ms, vehicles TOT 534 ACT 400 BUF 0)               
 Retrying in 1 seconds
出現数: {'A1': 360, 'A2': 40}
割合:
  Total: 400
  A1: 360 (90.00%)
  A2: 40 (10.00%)
  B1: 0 (0.00%)
  B2: 0 (0.00%)
mean elapsed_time: 603.7525
OK all vehs arrived 
平均渋滞継続時間: 510.16秒
OK all vehicle abandonment were detected
278
122
===== Simlation Result Summary =====
avg_congestion_duration: 510.16 
arrival_time_by_vehID_dict:{'init_ShelterA_1_0': 199.0, 'init_ShelterA_1_1': 207.0, 'init_ShelterA_1_2': 212.0, 'init_ShelterA_1_4': 288.0, 'init_ShelterA_1_5': 294.0, 'init_ShelterA_1_6': 299.0, 'init_ShelterA_1_7': 305.0, 'init_ShelterA_1_8': 310.0, 'init_ShelterA_1_9': 316.0, 'init_ShelterA_1_10': 323.0, 'init_ShelterA_1_11': 330.0, 'init_ShelterA_1_12': 339.0, 'init_ShelterA_1_13': 347.0, 'init_ShelterA_1_14': 356.0, 'init_ShelterA_1_15': 365.0, 'init_ShelterA_1_16': 374.0, 'init_ShelterA_1_17': 383.0, 'init_ShelterA_1_18': 393.0, 'init_ShelterA_1_19': 402.0, 'init_ShelterA_1_20': 412.0, 'init_ShelterA_1_21': 422.0, 'init_ShelterA_2_3': 425.0, 'init_ShelterA_1_22': 431.0, 'init_ShelterA_1_23': 441.0, 'init_ShelterA_1_24': 451.0, 'init_ShelterA_1_25': 460.0, 'init_ShelterA_1_26': 470.0, 'init_ShelterA_1_27': 480.0, 'init_ShelterA_1_28': 489.0, 'init_ShelterA_1_29': 499.0, 'init_ShelterA_1_30': 509.0, 'init_ShelterA_2_34': 517.0, 'init_ShelterA_1_31': 518.0, 'init_ShelterA_1_32': 528.0, 'init_ShelterA_1_33': 537.0, 'init_ShelterA_1_35': 547.0, 'init_ShelterA_1_36': 557.0, 'init_ShelterA_1_37': 566.0, 'init_ShelterA_1_38': 576.0, 'init_ShelterA_2_39': 580.0, 'init_ShelterA_1_40': 585.0, 'init_ShelterA_1_41': 595.0, 'init_ShelterA_1_42': 604.0, 'init_ShelterA_1_43': 614.0, 'init_ShelterA_1_54': 619.0, 'init_ShelterA_1_44': 623.0, 'init_ShelterA_1_45': 633.0, 'init_ShelterA_1_55': 634.0, 'init_ShelterA_1_56': 637.0, 'init_ShelterA_1_46': 642.0, 'init_ShelterA_1_47': 652.0, 'init_ShelterA_1_57': 652.0, 'init_ShelterA_1_58': 654.0, 'init_ShelterA_1_48': 661.0, 'init_ShelterA_1_59': 661.0, 'init_ShelterA_1_49': 670.0, 'init_ShelterA_1_60': 678.0, 'init_ShelterA_1_50': 679.0, 'init_ShelterA_1_61': 680.0, 'init_ShelterA_1_62': 683.0, 'init_ShelterA_1_63': 686.0, 'init_ShelterA_1_51': 688.0, 'init_ShelterA_1_64': 689.0, 'init_ShelterA_1_65': 692.0, 'init_ShelterA_1_66': 695.0, 'init_ShelterA_1_52': 697.0, 'init_ShelterA_1_67': 698.0, 'init_ShelterA_2_53': 699.0, 'init_ShelterA_1_68': 701.0, 'init_ShelterA_1_69': 704.0, 'init_ShelterA_1_72': 708.0, 'init_ShelterA_2_76': 710.0, 'init_ShelterA_2_81': 713.0, 'init_ShelterA_1_85': 718.0, 'init_ShelterA_2_92': 735.0, 'init_ShelterA_1_70': 742.0, 'init_ShelterA_1_71': 745.0, 'init_ShelterA_1_73': 747.0, 'init_ShelterA_1_74': 750.0, 'init_ShelterA_1_75': 764.0, 'init_ShelterA_1_77': 766.0, 'init_ShelterA_1_78': 770.0, 'init_ShelterA_1_79': 777.0, 'init_ShelterA_1_80': 779.0, 'init_ShelterA_1_82': 782.0, 'init_ShelterA_1_83': 784.0, 'init_ShelterA_1_84': 787.0, 'init_ShelterA_1_86': 790.0, 'init_ShelterA_1_108': 829.0, 'init_ShelterA_1_87': 839.0, 'init_ShelterA_1_88': 841.0, 'init_ShelterA_1_113': 845.0, 'init_ShelterA_1_89': 845.0, 'init_ShelterA_1_90': 847.0, 'init_ShelterA_1_91': 849.0, 'init_ShelterA_1_93': 852.0, 'init_ShelterA_1_94': 855.0, 'init_ShelterA_1_95': 857.0, 'init_ShelterA_1_96': 860.0, 'init_ShelterA_1_97': 863.0, 'init_ShelterA_1_98': 866.0, 'init_ShelterA_1_99': 869.0, 'init_ShelterA_1_100': 872.0, 'init_ShelterA_1_101': 877.0, 'init_ShelterA_1_102': 879.0, 'init_ShelterA_1_103': 882.0, 'init_ShelterA_1_104': 897.0, 'init_ShelterA_1_105': 909.0, 'init_ShelterA_1_106': 920.0, 'init_ShelterA_1_107': 928.0, 'init_ShelterA_1_109': 930.0, 'init_ShelterA_1_110': 932.0, 'init_ShelterA_1_111': 934.0, 'init_ShelterA_1_112': 937.0, 'init_ShelterA_1_114': 948.0, 'init_ShelterA_1_115': 950.0, 'init_ShelterA_1_116': 952.0, 'init_ShelterA_1_117': 955.0, 'init_ShelterA_1_118': 958.0, 'init_ShelterA_1_119': 980.0, 'init_ShelterA_1_120': 991.0, 'init_ShelterA_1_121': 998.0, 'init_ShelterA_1_122': 1000.0, 'init_ShelterA_1_123': 1010.0, 'init_ShelterA_1_124': 1011.0, 'init_ShelterA_1_141': 1013.0, 'init_ShelterA_1_145': 1023.0, 'init_ShelterA_1_125': 1026.0, 'init_ShelterA_1_126': 1028.0, 'init_ShelterA_1_127': 1037.0, 'init_ShelterA_1_128': 1039.0, 'init_ShelterA_1_129': 1041.0, 'init_ShelterA_1_130': 1043.0, 'init_ShelterA_1_131': 1046.0, 'init_ShelterA_1_132': 1050.0, 'init_ShelterA_1_133': 1053.0, 'init_ShelterA_1_134': 1055.0, 'init_ShelterA_1_135': 1057.0, 'init_ShelterA_1_136': 1060.0, 'init_ShelterA_1_137': 1081.0, 'init_ShelterA_1_138': 1083.0, 'init_ShelterA_2_160': 1093.0, 'init_ShelterA_2_161': 1095.0, 'init_ShelterA_1_139': 1102.0, 'init_ShelterA_1_140': 1104.0, 'init_ShelterA_1_142': 1106.0, 'init_ShelterA_1_143': 1108.0, 'init_ShelterA_1_144': 1111.0, 'init_ShelterA_1_163': 1115.0, 'init_ShelterA_2_165': 1118.0, 'init_ShelterA_1_146': 1119.0, 'init_ShelterA_1_147': 1120.0, 'init_ShelterA_1_148': 1123.0, 'init_ShelterA_1_149': 1126.0, 'init_ShelterA_1_150': 1128.0, 'init_ShelterA_1_151': 1131.0, 'init_ShelterA_1_152': 1133.0, 'init_ShelterA_1_153': 1136.0, 'init_ShelterA_1_154': 1188.0, 'init_ShelterA_1_155': 1192.0, 'init_ShelterA_1_156': 1194.0, 'init_ShelterA_1_157': 1196.0, 'init_ShelterA_1_158': 1198.0, 'init_ShelterA_1_159': 1200.0, 'init_ShelterA_1_162': 1203.0, 'init_ShelterA_1_164': 1211.0, 'init_ShelterA_1_166': 1213.0, 'init_ShelterA_1_167': 1215.0, 'init_ShelterA_1_168': 1223.0, 'init_ShelterA_1_169': 1225.0, 'init_ShelterA_1_170': 1227.0, 'newveh_ShelterA_2_179_30': 1300.0, 'newveh_ShelterA_2_178_29': 1323.0, 'init_ShelterA_1_171': 1325.0, 'init_ShelterA_1_172': 1327.0, 'init_ShelterA_1_173': 1329.0, 'init_ShelterA_1_174': 1331.0, 'init_ShelterA_1_175': 1334.0, 'init_ShelterA_1_176': 1337.0, 'init_ShelterA_1_177': 1340.0, 'init_ShelterA_1_180': 1343.0, 'init_ShelterA_1_181': 1346.0, 'init_ShelterA_1_182': 1349.0, 'init_ShelterA_1_183': 1352.0, 'init_ShelterA_1_184': 1355.0, 'newveh_ShelterA_2_185_0': 1374.0, 'init_ShelterA_1_212': 1376.0, 'init_ShelterA_1_214': 1379.0, 'init_ShelterA_1_216': 1381.0, 'init_ShelterA_1_217': 1383.0, 'newveh_ShelterA_1_196_26': 1390.0, 'newveh_ShelterA_2_192_4': 1390.0, 'newveh_ShelterA_1_190_25': 1396.0, 'newveh_ShelterA_2_191_3': 1396.0, 'newveh_ShelterA_2_186_1': 1400.0, 'newveh_ShelterA_1_189_24': 1403.0, 'newveh_ShelterA_2_187_2': 1405.0, 'newveh_ShelterA_1_188_23': 1408.0, 'newveh_ShelterA_2_193_5': 1410.0, 'init_ShelterA_1_219': 1412.0, 'newveh_ShelterA_2_194_6': 1418.0, 'newveh_ShelterA_2_197_8': 1426.0, 'newveh_ShelterA_2_195_7': 1435.0, 'newveh_ShelterA_2_198_9': 1444.0, 'newveh_ShelterA_2_199_10': 1454.0, 'newveh_ShelterA_2_200_11': 1464.0, 'newveh_ShelterA_2_201_12': 1473.0, 'newveh_ShelterA_2_202_13': 1483.0, 'newveh_ShelterA_1_232_33': 1489.0, 'newveh_ShelterA_2_203_14': 1493.0, 'newveh_ShelterA_1_234_35': 1494.0, 'newveh_ShelterA_2_204_15': 1502.0, 'newveh_ShelterA_2_205_16': 1512.0, 'newveh_ShelterA_2_206_17': 1522.0, 'newveh_ShelterA_2_221_65': 1532.0, 'newveh_ShelterA_2_207_18': 1541.0, 'init_ShelterA_1_264': 1546.0, 'newveh_ShelterA_2_208_19': 1551.0, 'newveh_ShelterA_1_236_37': 1552.0, 'newveh_ShelterA_1_235_36': 1556.0, 'newveh_ShelterA_2_209_20': 1560.0, 'newveh_ShelterA_1_240_45': 1565.0, 'newveh_ShelterA_2_211_22': 1570.0, 'newveh_ShelterA_2_210_21': 1580.0, 'init_ShelterA_1_271': 1583.0, 'newveh_ShelterA_2_215_28': 1589.0, 'newveh_ShelterA_2_213_27': 1609.0, 'init_ShelterA_1_218': 1611.0, 'init_ShelterA_1_228': 1614.0, 'init_ShelterA_1_231': 1616.0, 'init_ShelterA_1_237': 1618.0, 'init_ShelterA_1_238': 1620.0, 'newveh_ShelterA_2_220_64': 1627.0, 'init_ShelterA_1_273': 1628.0, 'newveh_ShelterA_2_248_66': 1634.0, 'init_ShelterA_1_274': 1637.0, 'init_ShelterA_1_287': 1642.0, 'newveh_ShelterA_2_251_75': 1642.0, 'newveh_ShelterA_1_259_46': 1647.0, 'newveh_ShelterA_2_250_74': 1664.0, 'init_ShelterA_1_241': 1666.0, 'init_ShelterA_1_242': 1669.0, 'init_ShelterA_1_243': 1671.0, 'init_ShelterA_1_296': 1672.0, 'init_ShelterA_1_244': 1673.0, 'init_ShelterA_1_245': 1675.0, 'init_ShelterA_1_246': 1677.0, 'init_ShelterA_1_303': 1677.0, 'init_ShelterA_1_247': 1680.0, 'init_ShelterA_1_249': 1682.0, 'init_ShelterA_1_252': 1685.0, 'newveh_ShelterA_2_227_31': 1695.0, 'init_ShelterA_1_253': 1697.0, 'init_ShelterA_1_260': 1699.0, 'newveh_ShelterA_2_223_32': 1709.0, 'newveh_ShelterA_2_233_34': 1717.0, 'init_ShelterA_1_262': 1719.0, 'init_ShelterA_2_308': 1725.0, 'newveh_ShelterA_2_286_88': 1728.0, 'newveh_ShelterA_2_285_87': 1737.0, 'newveh_ShelterA_2_284_86': 1747.0, 'init_ShelterA_1_263': 1749.0, 'newveh_ShelterA_1_281_62': 1756.0, 'newveh_ShelterA_2_283_85': 1759.0, 'newveh_ShelterA_2_222_38': 1773.0, 'init_ShelterA_1_265': 1775.0, 'init_ShelterA_1_266': 1777.0, 'init_ShelterA_1_267': 1779.0, 'newveh_ShelterA_2_224_39': 1787.0, 'newveh_ShelterA_2_225_40': 1795.0, 'newveh_ShelterA_2_239_44': 1804.0, 'newveh_ShelterA_2_229_42': 1812.0, 'newveh_ShelterA_1_282_63': 1819.0, 'init_ShelterA_2_323': 1822.0, 'newveh_ShelterA_2_226_41': 1822.0, 'init_ShelterA_1_325': 1829.0, 'newveh_ShelterA_2_230_43': 1831.0, 'init_ShelterA_1_269': 1833.0, 'init_ShelterA_1_326': 1833.0, 'newveh_ShelterA_2_293_94': 1843.0, 'init_ShelterA_1_331': 1844.0, 'newveh_ShelterA_1_294_67': 1850.0, 'newveh_ShelterA_2_292_93': 1853.0, 'newveh_ShelterA_2_254_47': 1875.0, 'init_ShelterA_1_288': 1877.0, 'init_ShelterA_1_289': 1880.0, 'init_ShelterA_1_290': 1882.0, 'init_ShelterA_1_291': 1884.0, 'newveh_ShelterA_2_255_48': 1890.0, 'init_ShelterA_2_337': 1894.0, 'newveh_ShelterA_2_256_49': 1895.0, 'newveh_ShelterA_2_257_50': 1903.0, 'init_ShelterA_1_340': 1909.0, 'newveh_ShelterA_2_258_51': 1912.0, 'newveh_ShelterA_1_295_69': 1916.0, 'newveh_ShelterA_2_261_52': 1922.0, 'init_ShelterA_1_302': 1924.0, 'init_ShelterA_1_356': 1933.0, 'newveh_ShelterA_2_322_106': 1947.0, 'init_ShelterA_1_304': 1949.0, 'init_ShelterA_1_305': 1951.0, 'init_ShelterA_1_306': 1953.0, 'init_ShelterA_1_307': 1956.0, 'init_ShelterA_1_309': 1958.0, 'init_ShelterA_1_310': 1960.0, 'newveh_ShelterA_2_276_55': 1967.0, 'newveh_ShelterA_2_275_54': 1972.0, 'newveh_ShelterA_2_272_53': 1980.0, 'newveh_ShelterA_2_277_56': 1990.0, 'newveh_ShelterA_2_278_57': 2000.0, 'init_ShelterA_1_320': 2002.0, 'init_ShelterA_1_369': 2003.0, 'init_ShelterA_1_321': 2004.0, 'newveh_ShelterA_2_280_61': 2014.0, 'newveh_ShelterA_2_279_60': 2023.0, 'init_ShelterA_1_389': 2031.0, 'newveh_ShelterA_2_332_127': 2032.0, 'init_ShelterA_1_392': 2039.0, 'newveh_ShelterA_2_268_58': 2042.0, 'newveh_ShelterA_1_335_89': 2044.0, 'newveh_ShelterA_1_338_90': 2048.0, 'newveh_ShelterA_2_270_59': 2064.0, 'init_ShelterA_1_324': 2066.0, 'init_ShelterA_1_327': 2068.0, 'init_ShelterA_1_328': 2070.0, 'init_ShelterA_1_329': 2072.0, 'init_ShelterA_1_330': 2074.0, 'init_ShelterA_1_333': 2076.0, 'init_ShelterA_1_334': 2079.0, 'init_ShelterA_1_336': 2081.0, 'newveh_ShelterA_2_365_133': 2090.0, 'newveh_ShelterA_2_364_132': 2095.0, 'init_ShelterA_1_394': 2096.0, 'init_ShelterA_1_396': 2104.0, 'newveh_ShelterA_2_363_131': 2104.0, 'init_ShelterA_2_399': 2106.0, 'newveh_ShelterA_2_360_130': 2112.0, 'newveh_ShelterA_1_339_91': 2114.0, 'newveh_ShelterA_1_342_92': 2119.0, 'newveh_ShelterA_2_353_129': 2121.0, 'newveh_ShelterA_1_350_96': 2123.0, 'newveh_ShelterA_2_297_68': 2132.0, 'init_ShelterA_1_341': 2135.0, 'init_ShelterA_1_343': 2137.0, 'newveh_ShelterA_2_301_73': 2146.0, 'newveh_ShelterA_2_300_72': 2155.0, 'newveh_ShelterA_2_299_71': 2165.0, 'newveh_ShelterA_2_298_70': 2187.0, 'newveh_ShelterA_1_372_110': 2188.0, 'init_ShelterA_1_351': 2189.0, 'init_ShelterA_1_352': 2191.0, 'init_ShelterA_1_359': 2193.0, 'newveh_ShelterA_1_375_111': 2194.0, 'init_ShelterA_1_361': 2195.0, 'init_ShelterA_1_362': 2197.0, 'newveh_ShelterA_1_377_115': 2202.0, 'newveh_ShelterA_1_382_119': 2206.0, 'newveh_ShelterA_1_381_118': 2211.0, 'newveh_ShelterA_2_311_76': 2217.0, 'init_ShelterA_1_366': 2219.0, 'init_ShelterA_1_367': 2221.0, 'init_ShelterA_1_368': 2223.0, 'init_ShelterA_1_370': 2225.0, 'newveh_ShelterA_2_318_83': 2232.0, 'newveh_ShelterA_2_317_82': 2237.0, 'newveh_ShelterA_2_316_81': 2245.0, 'newveh_ShelterA_2_315_80': 2253.0, 'newveh_ShelterA_2_314_79': 2263.0, 'newveh_ShelterA_2_313_78': 2272.0, 'newveh_ShelterA_1_384_123': 2279.0, 'newveh_ShelterA_2_312_77': 2282.0, 'newveh_ShelterA_1_398_128': 2285.0, 'newveh_ShelterA_2_319_84': 2296.0, 'init_ShelterA_1_393': 2298.0, 'init_ShelterA_1_395': 2300.0, 'init_ShelterA_1_397': 2302.0, 'newveh_ShelterA_2_344_95': 2311.0, 'newveh_ShelterA_2_354_97': 2319.0, 'newveh_ShelterA_2_357_101': 2328.0, 'newveh_ShelterA_2_358_102': 2338.0, 'newveh_ShelterA_2_355_100': 2347.0, 'newveh_ShelterA_2_374_109': 2357.0, 'newveh_ShelterA_2_373_108': 2367.0, 'newveh_ShelterA_2_371_107': 2376.0, 'newveh_ShelterA_2_347_99': 2386.0, 'newveh_ShelterA_2_346_98': 2396.0, 'newveh_ShelterA_2_349_105': 2406.0, 'newveh_ShelterA_2_348_104': 2415.0, 'newveh_ShelterA_2_345_103': 2425.0, 'newveh_ShelterA_2_378_113': 2435.0, 'newveh_ShelterA_2_379_114': 2444.0, 'newveh_ShelterA_2_376_112': 2454.0, 'newveh_ShelterA_2_380_116': 2464.0, 'newveh_ShelterA_2_383_117': 2474.0, 'newveh_ShelterA_2_386_121': 2483.0, 'newveh_ShelterA_2_385_120': 2493.0, 'newveh_ShelterA_2_387_122': 2502.0, 'newveh_ShelterA_2_390_125': 2509.0, 'newveh_ShelterA_2_391_126': 2513.0, 'newveh_ShelterA_2_388_124': 2518.0}
vehicle_abandant_time_by_pedestrianID_dict:{}
walking_distance_by_pedestrianID_dict:{}
route_change_time_by_vehID_dict:{'init_ShelterA_1_56': 430.0, 'init_ShelterA_1_57': 430.0, 'init_ShelterA_1_58': 430.0, 'init_ShelterA_1_59': 430.0, 'init_ShelterA_1_63': 430.0, 'init_ShelterA_1_64': 430.0, 'init_ShelterA_1_65': 430.0, 'init_ShelterA_2_53': 430.0, 'init_ShelterA_1_54': 440.0, 'init_ShelterA_1_55': 440.0, 'init_ShelterA_1_70': 440.0, 'init_ShelterA_1_60': 460.0, 'init_ShelterA_1_61': 460.0, 'init_ShelterA_1_62': 460.0, 'init_ShelterA_1_66': 460.0, 'init_ShelterA_1_68': 470.0, 'init_ShelterA_1_69': 470.0, 'init_ShelterA_1_71': 490.0, 'init_ShelterA_2_76': 490.0, 'init_ShelterA_1_67': 500.0, 'init_ShelterA_1_73': 500.0, 'init_ShelterA_1_74': 500.0, 'init_ShelterA_1_75': 500.0, 'init_ShelterA_1_77': 500.0, 'init_ShelterA_1_78': 500.0, 'init_ShelterA_1_79': 510.0, 'init_ShelterA_1_80': 510.0, 'init_ShelterA_1_82': 510.0, 'init_ShelterA_1_84': 510.0, 'init_ShelterA_2_81': 510.0, 'init_ShelterA_1_83': 520.0, 'init_ShelterA_1_86': 520.0, 'init_ShelterA_1_88': 520.0, 'init_ShelterA_1_87': 530.0, 'init_ShelterA_1_90': 580.0, 'init_ShelterA_1_93': 590.0, 'init_ShelterA_1_94': 590.0, 'init_ShelterA_1_95': 590.0, 'init_ShelterA_1_96': 590.0, 'init_ShelterA_1_97': 590.0, 'init_ShelterA_2_92': 590.0, 'init_ShelterA_1_100': 600.0, 'init_ShelterA_1_102': 600.0, 'init_ShelterA_1_89': 600.0, 'init_ShelterA_1_91': 600.0, 'init_ShelterA_1_98': 600.0, 'init_ShelterA_1_99': 600.0, 'init_ShelterA_1_104': 610.0, 'init_ShelterA_1_105': 610.0, 'init_ShelterA_1_106': 610.0, 'init_ShelterA_1_101': 620.0, 'init_ShelterA_1_103': 620.0, 'init_ShelterA_1_107': 670.0, 'init_ShelterA_1_109': 670.0, 'init_ShelterA_1_110': 670.0, 'init_ShelterA_1_115': 680.0, 'init_ShelterA_1_117': 680.0, 'init_ShelterA_1_118': 680.0, 'init_ShelterA_1_114': 690.0, 'init_ShelterA_1_116': 690.0, 'init_ShelterA_1_119': 690.0, 'init_ShelterA_1_120': 690.0, 'init_ShelterA_1_121': 690.0, 'init_ShelterA_1_124': 700.0, 'init_ShelterA_1_111': 730.0, 'init_ShelterA_1_112': 730.0, 'init_ShelterA_1_126': 750.0, 'init_ShelterA_1_123': 760.0, 'init_ShelterA_1_125': 760.0, 'init_ShelterA_1_127': 760.0, 'init_ShelterA_1_128': 760.0, 'init_ShelterA_1_131': 760.0, 'init_ShelterA_1_132': 760.0, 'init_ShelterA_1_133': 760.0, 'init_ShelterA_1_134': 760.0, 'init_ShelterA_1_122': 770.0, 'init_ShelterA_1_129': 770.0, 'init_ShelterA_1_135': 770.0, 'init_ShelterA_1_136': 770.0, 'init_ShelterA_1_137': 770.0, 'init_ShelterA_1_139': 770.0, 'init_ShelterA_1_140': 770.0, 'init_ShelterA_1_138': 780.0, 'init_ShelterA_1_185': 810.0, 'init_ShelterA_1_186': 810.0, 'init_ShelterA_1_187': 810.0, 'init_ShelterA_1_191': 810.0, 'init_ShelterA_1_192': 810.0, 'init_ShelterA_1_193': 810.0, 'init_ShelterA_1_194': 810.0, 'init_ShelterA_1_195': 810.0, 'init_ShelterA_1_197': 810.0, 'init_ShelterA_1_198': 810.0, 'init_ShelterA_1_199': 810.0, 'init_ShelterA_1_200': 810.0, 'init_ShelterA_1_201': 810.0, 'init_ShelterA_1_202': 810.0, 'init_ShelterA_1_203': 810.0, 'init_ShelterA_1_204': 810.0, 'init_ShelterA_1_205': 810.0, 'init_ShelterA_1_206': 810.0, 'init_ShelterA_1_207': 810.0, 'init_ShelterA_1_208': 810.0, 'init_ShelterA_1_209': 810.0, 'init_ShelterA_1_210': 810.0, 'init_ShelterA_1_211': 810.0, 'init_ShelterA_2_188': 810.0, 'init_ShelterA_2_189': 810.0, 'init_ShelterA_2_190': 810.0, 'init_ShelterA_2_196': 810.0, 'init_ShelterA_1_130': 820.0, 'init_ShelterA_1_213': 820.0, 'init_ShelterA_1_215': 820.0, 'init_ShelterA_1_143': 840.0, 'init_ShelterA_1_144': 840.0, 'init_ShelterA_1_147': 840.0, 'init_ShelterA_1_148': 840.0, 'init_ShelterA_1_149': 840.0, 'init_ShelterA_1_151': 840.0, 'init_ShelterA_1_153': 850.0, 'init_ShelterA_1_154': 850.0, 'init_ShelterA_1_157': 850.0, 'init_ShelterA_1_158': 850.0, 'init_ShelterA_1_159': 850.0, 'init_ShelterA_2_160': 850.0, 'init_ShelterA_2_161': 850.0, 'init_ShelterA_1_156': 860.0, 'init_ShelterA_1_155': 870.0, 'init_ShelterA_1_162': 900.0, 'init_ShelterA_1_150': 910.0, 'init_ShelterA_2_165': 910.0, 'init_ShelterA_1_152': 920.0, 'init_ShelterA_1_146': 930.0, 'init_ShelterA_1_164': 930.0, 'init_ShelterA_1_166': 930.0, 'init_ShelterA_1_167': 930.0, 'init_ShelterA_1_168': 930.0, 'init_ShelterA_1_142': 940.0, 'init_ShelterA_1_169': 940.0, 'init_ShelterA_1_172': 950.0, 'init_ShelterA_1_173': 950.0, 'init_ShelterA_1_175': 950.0, 'init_ShelterA_1_176': 950.0, 'init_ShelterA_1_177': 950.0, 'init_ShelterA_1_178': 950.0, 'init_ShelterA_1_179': 950.0, 'init_ShelterA_1_227': 950.0, 'init_ShelterA_1_171': 960.0, 'init_ShelterA_1_223': 960.0, 'init_ShelterA_2_232': 960.0, 'init_ShelterA_1_170': 970.0, 'init_ShelterA_1_233': 970.0, 'init_ShelterA_2_234': 970.0, 'init_ShelterA_2_235': 970.0, 'init_ShelterA_2_236': 970.0, 'init_ShelterA_1_222': 980.0, 'init_ShelterA_1_224': 980.0, 'init_ShelterA_1_225': 980.0, 'init_ShelterA_1_226': 980.0, 'init_ShelterA_1_229': 980.0, 'init_ShelterA_1_230': 980.0, 'init_ShelterA_1_239': 980.0, 'init_ShelterA_2_240': 980.0, 'init_ShelterA_1_181': 990.0, 'init_ShelterA_1_182': 990.0, 'init_ShelterA_1_183': 990.0, 'init_ShelterA_1_180': 1000.0, 'init_ShelterA_1_174': 1020.0, 'init_ShelterA_1_216': 1030.0, 'init_ShelterA_2_259': 1050.0, 'init_ShelterA_1_254': 1060.0, 'init_ShelterA_1_255': 1060.0, 'init_ShelterA_1_256': 1060.0, 'init_ShelterA_1_257': 1060.0, 'init_ShelterA_1_258': 1060.0, 'init_ShelterA_1_261': 1060.0, 'init_ShelterA_1_184': 1090.0, 'init_ShelterA_1_212': 1090.0, 'init_ShelterA_1_214': 1090.0, 'init_ShelterA_1_217': 1090.0, 'init_ShelterA_1_272': 1150.0, 'init_ShelterA_1_275': 1150.0, 'init_ShelterA_1_276': 1150.0, 'init_ShelterA_1_277': 1150.0, 'init_ShelterA_1_278': 1150.0, 'init_ShelterA_1_268': 1160.0, 'init_ShelterA_1_270': 1160.0, 'init_ShelterA_1_279': 1160.0, 'init_ShelterA_1_280': 1160.0, 'init_ShelterA_2_281': 1160.0, 'init_ShelterA_2_282': 1160.0, 'init_ShelterA_1_220': 1170.0, 'init_ShelterA_1_221': 1170.0, 'init_ShelterA_1_231': 1210.0, 'init_ShelterA_1_218': 1220.0, 'init_ShelterA_1_242': 1220.0, 'init_ShelterA_1_243': 1220.0, 'init_ShelterA_1_244': 1220.0, 'init_ShelterA_1_245': 1220.0, 'init_ShelterA_1_246': 1220.0, 'init_ShelterA_1_247': 1220.0, 'init_ShelterA_1_248': 1220.0, 'init_ShelterA_1_263': 1220.0, 'init_ShelterA_2_294': 1220.0, 'init_ShelterA_1_228': 1230.0, 'init_ShelterA_1_237': 1230.0, 'init_ShelterA_1_238': 1230.0, 'init_ShelterA_1_241': 1230.0, 'init_ShelterA_1_297': 1230.0, 'init_ShelterA_2_295': 1230.0, 'init_ShelterA_1_249': 1240.0, 'init_ShelterA_1_298': 1240.0, 'init_ShelterA_1_299': 1240.0, 'init_ShelterA_1_300': 1240.0, 'init_ShelterA_1_301': 1240.0, 'init_ShelterA_1_250': 1250.0, 'init_ShelterA_1_251': 1250.0, 'init_ShelterA_1_252': 1250.0, 'init_ShelterA_1_260': 1270.0, 'init_ShelterA_1_266': 1290.0, 'init_ShelterA_1_267': 1290.0, 'init_ShelterA_1_253': 1300.0, 'init_ShelterA_1_262': 1310.0, 'init_ShelterA_1_311': 1310.0, 'init_ShelterA_1_312': 1310.0, 'init_ShelterA_1_313': 1310.0, 'init_ShelterA_1_314': 1310.0, 'init_ShelterA_1_315': 1310.0, 'init_ShelterA_1_316': 1310.0, 'init_ShelterA_1_317': 1310.0, 'init_ShelterA_1_318': 1310.0, 'init_ShelterA_1_319': 1310.0, 'init_ShelterA_1_265': 1340.0, 'init_ShelterA_1_283': 1360.0, 'init_ShelterA_1_284': 1360.0, 'init_ShelterA_1_285': 1360.0, 'init_ShelterA_1_286': 1360.0, 'init_ShelterA_1_288': 1390.0, 'init_ShelterA_1_289': 1390.0, 'init_ShelterA_1_290': 1390.0, 'init_ShelterA_1_291': 1390.0, 'init_ShelterA_2_323': 1390.0, 'init_ShelterA_1_302': 1400.0, 'init_ShelterA_1_304': 1400.0, 'init_ShelterA_2_335': 1410.0, 'init_ShelterA_1_269': 1420.0, 'init_ShelterA_2_338': 1420.0, 'init_ShelterA_2_339': 1420.0, 'init_ShelterA_2_342': 1430.0, 'init_ShelterA_1_292': 1440.0, 'init_ShelterA_1_293': 1440.0, 'init_ShelterA_1_344': 1440.0, 'init_ShelterA_2_350': 1460.0, 'init_ShelterA_1_354': 1470.0, 'init_ShelterA_1_346': 1480.0, 'init_ShelterA_1_347': 1480.0, 'init_ShelterA_1_355': 1480.0, 'init_ShelterA_1_357': 1480.0, 'init_ShelterA_1_358': 1480.0, 'init_ShelterA_1_345': 1490.0, 'init_ShelterA_1_348': 1490.0, 'init_ShelterA_1_349': 1490.0, 'init_ShelterA_2_308': 1500.0, 'init_ShelterA_1_306': 1520.0, 'init_ShelterA_1_309': 1520.0, 'init_ShelterA_1_310': 1520.0, 'init_ShelterA_1_320': 1520.0, 'init_ShelterA_1_321': 1520.0, 'init_ShelterA_1_307': 1530.0, 'init_ShelterA_1_322': 1530.0, 'init_ShelterA_1_305': 1540.0, 'init_ShelterA_1_371': 1550.0, 'init_ShelterA_1_373': 1550.0, 'init_ShelterA_1_374': 1550.0, 'init_ShelterA_2_372': 1550.0, 'init_ShelterA_2_375': 1550.0, 'init_ShelterA_1_330': 1560.0, 'init_ShelterA_1_376': 1560.0, 'init_ShelterA_1_378': 1560.0, 'init_ShelterA_1_379': 1560.0, 'init_ShelterA_2_377': 1560.0, 'init_ShelterA_1_329': 1570.0, 'init_ShelterA_1_380': 1570.0, 'init_ShelterA_1_383': 1570.0, 'init_ShelterA_2_381': 1570.0, 'init_ShelterA_2_382': 1570.0, 'init_ShelterA_1_385': 1580.0, 'init_ShelterA_1_386': 1580.0, 'init_ShelterA_1_387': 1580.0, 'init_ShelterA_2_384': 1580.0, 'init_ShelterA_1_388': 1590.0, 'init_ShelterA_1_390': 1590.0, 'init_ShelterA_1_391': 1590.0, 'init_ShelterA_1_324': 1610.0, 'init_ShelterA_1_328': 1610.0, 'init_ShelterA_1_333': 1610.0, 'init_ShelterA_1_334': 1610.0, 'init_ShelterA_1_336': 1610.0, 'init_ShelterA_1_327': 1620.0, 'init_ShelterA_1_332': 1620.0, 'init_ShelterA_2_337': 1620.0, 'init_ShelterA_2_398': 1630.0, 'init_ShelterA_1_351': 1650.0, 'init_ShelterA_1_343': 1680.0, 'init_ShelterA_1_341': 1690.0, 'init_ShelterA_1_352': 1690.0, 'init_ShelterA_1_359': 1690.0, 'init_ShelterA_1_361': 1690.0, 'init_ShelterA_1_362': 1690.0, 'init_ShelterA_1_353': 1700.0, 'init_ShelterA_1_360': 1700.0, 'init_ShelterA_1_363': 1700.0, 'init_ShelterA_1_364': 1700.0, 'init_ShelterA_1_365': 1700.0, 'init_ShelterA_1_366': 1730.0, 'init_ShelterA_1_368': 1730.0, 'init_ShelterA_1_370': 1730.0, 'init_ShelterA_1_367': 1770.0, 'init_ShelterA_1_393': 1850.0, 'init_ShelterA_2_399': 1860.0, 'init_ShelterA_1_395': 1870.0, 'init_ShelterA_1_397': 1870.0}
pedestrian_count:0
route_changed_vehicle_count:322
route_change_event_count:322
rate_vehicle_abandonment:0.00%
wrong_way_driving_count:0
vehicle_abandonment_count:0
normalcy_bias_route_change_count:214
majority_bias_route_change_count:108
lane_changed_vehicle_count:0
info_obtained_lanechange_count:0
elapsed_time_lanechange_count:0
majority_bias_lanechange_count:0

=== Job Result ===
end=2026-07-13T02:00:52+0900
elapsed_seconds=354
exit_code=0
status=SUCCESS
