=== Job Info ===
job_name=va_s14_e1.0_v1.0_r40
host=schubert
pid=143382
scenario=14
early_rate=1.0
v2v_rate=1.0
run_id=40
config=/home/katagi/vehicle-assistant-system/scenarios/JIP/configs/config_scenario_14.toml
output_dir=/home/katagi/vehicle-assistant-system/schubert_logs/va_s14_e1.0_v1.0_r40
start=2026-07-13T03:47:28+0900
python_version=Python 3.12.3
sumo_version=Eclipse SUMO sumo Version v1_23_1+0435-630512a

=== Command ===
cd /home/katagi/vehicle-assistant-system/schubert_logs/va_s14_e1.0_v1.0_r40
PYTHONPATH=/home/katagi/vehicle-assistant-system:/home/katagi/tmp/sumo/tools:/home/katagi/local/sumo/tools:/home/katagi/tmp/sumo/tools:/home/katagi/local/sumo/tools:/home/katagi/tmp/sumo/tools:/home/katagi/local/sumo/tools: python3 -W ignore::UserWarning -m scenarios.JIP.1-1-4.simulation.runner_simulator --nogui /home/katagi/vehicle-assistant-system/scenarios/JIP/configs/config_scenario_14.toml 1.0 1.0
simulation_pid=143402
Step #0.00 (0ms ?*RT. ?UPS, TraCI: 324ms, vehicles TOT 1 ACT 1 BUF 0)                     Step #100.00 (0ms ?*RT. ?UPS, TraCI: 17ms, vehicles TOT 26 ACT 26 BUF 0)                  Step #200.00 (1ms ~= 1000.00*RT, ~51000.00UPS, TraCI: 36ms, vehicles TOT 51 ACT 51 BUF 0) Step #300.00 (0ms ?*RT. ?UPS, TraCI: 56ms, vehicles TOT 77 ACT 77 BUF 0)                  Step #400.00 (0ms ?*RT. ?UPS, TraCI: 1818ms, vehicles TOT 104 ACT 104 BUF 0)              Step #500.00 (1ms ~= 1000.00*RT, ~131000.00UPS, TraCI: 1724ms, vehicles TOT 131 ACT 131 BUStep #600.00 (1ms ~= 1000.00*RT, ~158000.00UPS, TraCI: 1450ms, vehicles TOT 158 ACT 158 BUStep #700.00 (1ms ~= 1000.00*RT, ~186000.00UPS, TraCI: 1338ms, vehicles TOT 186 ACT 186 BUStep #800.00 (0ms ?*RT. ?UPS, TraCI: 1592ms, vehicles TOT 219 ACT 194 BUF 21)             Step #900.00 (1ms ~= 1000.00*RT, ~211000.00UPS, TraCI: 861ms, vehicles TOT 252 ACT 211 BUFStep #1000.00 (0ms ?*RT. ?UPS, TraCI: 648ms, vehicles TOT 274 ACT 230 BUF 44)             Step #1100.00 (1ms ~= 1000.00*RT, ~260000.00UPS, TraCI: 1710ms, vehicles TOT 307 ACT 260 BStep #1200.00 (1ms ~= 1000.00*RT, ~280000.00UPS, TraCI: 1047ms, vehicles TOT 340 ACT 280 BStep #1300.00 (1ms ~= 1000.00*RT, ~297000.00UPS, TraCI: 1567ms, vehicles TOT 366 ACT 297 BStep #1400.00 (1ms ~= 1000.00*RT, ~319000.00UPS, TraCI: 3237ms, vehicles TOT 392 ACT 319 BStep #1500.00 (1ms ~= 1000.00*RT, ~333000.00UPS, TraCI: 2686ms, vehicles TOT 413 ACT 333 BStep #1600.00 (1ms ~= 1000.00*RT, ~358000.00UPS, TraCI: 1873ms, vehicles TOT 444 ACT 358 BStep #1700.00 (1ms ~= 1000.00*RT, ~381000.00UPS, TraCI: 1335ms, vehicles TOT 478 ACT 381 BStep #1800.00 (1ms ~= 1000.00*RT, ~398000.00UPS, TraCI: 1228ms, vehicles TOT 510 ACT 398 BStep #1900.00 (1ms ~= 1000.00*RT, ~400000.00UPS, TraCI: 921ms, vehicles TOT 512 ACT 400 BUStep #2000.00 (0ms ?*RT. ?UPS, TraCI: 185ms, vehicles TOT 512 ACT 400 BUF 0)              Step #2100.00 (0ms ?*RT. ?UPS, TraCI: 116ms, vehicles TOT 512 ACT 400 BUF 0)              Step #2200.00 (1ms ~= 1000.00*RT, ~400000.00UPS, TraCI: 103ms, vehicles TOT 512 ACT 400 BUStep #2300.00 (0ms ?*RT. ?UPS, TraCI: 94ms, vehicles TOT 512 ACT 400 BUF 0)               Step #2400.00 (1ms ~= 1000.00*RT, ~400000.00UPS, TraCI: 79ms, vehicles TOT 512 ACT 400 BUFStep #2500.00 (0ms ?*RT. ?UPS, TraCI: 75ms, vehicles TOT 512 ACT 400 BUF 0)               Step #2600.00 (0ms ?*RT. ?UPS, TraCI: 78ms, vehicles TOT 512 ACT 400 BUF 0)               Step #2700.00 (0ms ?*RT. ?UPS, TraCI: 77ms, vehicles TOT 512 ACT 400 BUF 0)               Step #2800.00 (0ms ?*RT. ?UPS, TraCI: 77ms, vehicles TOT 512 ACT 400 BUF 0)               Step #2900.00 (0ms ?*RT. ?UPS, TraCI: 77ms, vehicles TOT 512 ACT 400 BUF 0)               Step #3000.00 (0ms ?*RT. ?UPS, TraCI: 77ms, vehicles TOT 512 ACT 400 BUF 0)               
 Retrying in 1 seconds
出現数: {'A1': 361, 'A2': 39}
割合:
  Total: 400
  A1: 361 (90.25%)
  A2: 39 (9.75%)
  B1: 0 (0.00%)
  B2: 0 (0.00%)
mean elapsed_time: 542.895
OK all vehs arrived 
平均渋滞継続時間: 461.42秒
OK all vehicle abandonment were detected
287
113
===== Simlation Result Summary =====
avg_congestion_duration: 461.42 
arrival_time_by_vehID_dict:{'init_ShelterA_1_0': 218.0, 'init_ShelterA_1_2': 228.0, 'init_ShelterA_1_4': 236.0, 'init_ShelterA_1_5': 241.0, 'init_ShelterA_1_6': 245.0, 'init_ShelterA_1_7': 282.0, 'init_ShelterA_1_8': 291.0, 'init_ShelterA_1_9': 297.0, 'init_ShelterA_1_10': 303.0, 'init_ShelterA_1_11': 308.0, 'init_ShelterA_2_1': 311.0, 'init_ShelterA_1_12': 315.0, 'init_ShelterA_1_13': 322.0, 'init_ShelterA_1_14': 329.0, 'init_ShelterA_2_3': 335.0, 'init_ShelterA_1_15': 337.0, 'init_ShelterA_1_16': 346.0, 'init_ShelterA_1_19': 355.0, 'init_ShelterA_1_20': 363.0, 'init_ShelterA_1_21': 369.0, 'init_ShelterA_1_22': 374.0, 'init_ShelterA_1_23': 379.0, 'init_ShelterA_1_24': 386.0, 'init_ShelterA_1_25': 392.0, 'init_ShelterA_1_26': 400.0, 'init_ShelterA_1_27': 407.0, 'init_ShelterA_2_17': 410.0, 'init_ShelterA_1_28': 416.0, 'init_ShelterA_1_29': 425.0, 'init_ShelterA_2_18': 431.0, 'init_ShelterA_1_30': 434.0, 'init_ShelterA_1_31': 444.0, 'init_ShelterA_1_32': 453.0, 'init_ShelterA_1_33': 463.0, 'init_ShelterA_1_34': 473.0, 'init_ShelterA_1_35': 482.0, 'init_ShelterA_1_37': 492.0, 'init_ShelterA_2_36': 496.0, 'init_ShelterA_1_38': 502.0, 'init_ShelterA_1_39': 511.0, 'init_ShelterA_1_40': 521.0, 'init_ShelterA_1_41': 531.0, 'init_ShelterA_1_42': 541.0, 'init_ShelterA_1_43': 550.0, 'init_ShelterA_1_44': 560.0, 'init_ShelterA_1_45': 569.0, 'init_ShelterA_2_46': 572.0, 'init_ShelterA_1_47': 582.0, 'init_ShelterA_1_48': 591.0, 'init_ShelterA_1_49': 601.0, 'init_ShelterA_1_50': 611.0, 'init_ShelterA_1_51': 620.0, 'init_ShelterA_1_60': 626.0, 'init_ShelterA_1_52': 630.0, 'init_ShelterA_1_53': 639.0, 'init_ShelterA_1_54': 649.0, 'init_ShelterA_1_61': 649.0, 'init_ShelterA_1_62': 651.0, 'init_ShelterA_1_64': 654.0, 'init_ShelterA_1_55': 659.0, 'init_ShelterA_1_56': 668.0, 'init_ShelterA_1_57': 678.0, 'init_ShelterA_1_58': 687.0, 'init_ShelterA_1_59': 697.0, 'init_ShelterA_1_63': 706.0, 'init_ShelterA_2_65': 708.0, 'init_ShelterA_1_71': 719.0, 'init_ShelterA_1_72': 729.0, 'init_ShelterA_2_76': 731.0, 'init_ShelterA_2_83': 733.0, 'init_ShelterA_1_88': 744.0, 'init_ShelterA_1_89': 752.0, 'init_ShelterA_1_90': 758.0, 'init_ShelterA_1_66': 764.0, 'init_ShelterA_1_91': 765.0, 'init_ShelterA_1_67': 766.0, 'init_ShelterA_1_68': 769.0, 'init_ShelterA_1_69': 772.0, 'init_ShelterA_1_95': 772.0, 'init_ShelterA_1_70': 775.0, 'init_ShelterA_1_73': 778.0, 'init_ShelterA_1_103': 781.0, 'init_ShelterA_1_74': 781.0, 'init_ShelterA_2_105': 783.0, 'init_ShelterA_1_75': 784.0, 'init_ShelterA_1_77': 787.0, 'init_ShelterA_1_107': 788.0, 'init_ShelterA_1_78': 790.0, 'init_ShelterA_2_108': 791.0, 'init_ShelterA_1_79': 793.0, 'init_ShelterA_1_80': 796.0, 'init_ShelterA_1_81': 799.0, 'init_ShelterA_1_82': 802.0, 'init_ShelterA_1_84': 805.0, 'init_ShelterA_1_85': 807.0, 'init_ShelterA_1_86': 811.0, 'init_ShelterA_1_87': 814.0, 'init_ShelterA_1_92': 816.0, 'init_ShelterA_1_93': 819.0, 'init_ShelterA_1_109': 827.0, 'init_ShelterA_1_94': 829.0, 'init_ShelterA_1_96': 832.0, 'init_ShelterA_1_97': 834.0, 'init_ShelterA_1_111': 835.0, 'init_ShelterA_1_98': 837.0, 'init_ShelterA_1_99': 840.0, 'init_ShelterA_1_117': 842.0, 'init_ShelterA_1_100': 850.0, 'init_ShelterA_1_118': 852.0, 'init_ShelterA_2_119': 854.0, 'init_ShelterA_1_101': 862.0, 'init_ShelterA_1_121': 862.0, 'init_ShelterA_1_102': 864.0, 'init_ShelterA_1_104': 866.0, 'init_ShelterA_1_106': 869.0, 'init_ShelterA_1_110': 887.0, 'init_ShelterA_2_126': 910.0, 'init_ShelterA_1_112': 930.0, 'init_ShelterA_1_113': 932.0, 'init_ShelterA_1_114': 934.0, 'init_ShelterA_1_115': 937.0, 'init_ShelterA_1_116': 941.0, 'init_ShelterA_1_120': 944.0, 'init_ShelterA_1_122': 946.0, 'init_ShelterA_1_138': 950.0, 'init_ShelterA_1_123': 952.0, 'init_ShelterA_1_124': 954.0, 'init_ShelterA_1_125': 983.0, 'init_ShelterA_1_155': 1045.0, 'init_ShelterA_1_127': 1050.0, 'init_ShelterA_1_128': 1052.0, 'init_ShelterA_1_129': 1054.0, 'init_ShelterA_1_130': 1057.0, 'init_ShelterA_1_131': 1060.0, 'init_ShelterA_1_132': 1063.0, 'init_ShelterA_1_133': 1066.0, 'init_ShelterA_1_134': 1069.0, 'init_ShelterA_1_135': 1072.0, 'init_ShelterA_1_136': 1075.0, 'init_ShelterA_1_137': 1078.0, 'init_ShelterA_1_139': 1080.0, 'init_ShelterA_1_140': 1083.0, 'init_ShelterA_1_161': 1099.0, 'init_ShelterA_1_166': 1108.0, 'init_ShelterA_1_141': 1110.0, 'init_ShelterA_1_142': 1112.0, 'init_ShelterA_1_143': 1114.0, 'init_ShelterA_1_144': 1116.0, 'init_ShelterA_1_145': 1119.0, 'init_ShelterA_1_146': 1122.0, 'init_ShelterA_1_147': 1125.0, 'init_ShelterA_1_148': 1130.0, 'init_ShelterA_1_149': 1144.0, 'init_ShelterA_1_150': 1146.0, 'init_ShelterA_1_151': 1148.0, 'init_ShelterA_1_152': 1150.0, 'init_ShelterA_1_153': 1153.0, 'init_ShelterA_1_154': 1156.0, 'init_ShelterA_1_156': 1158.0, 'init_ShelterA_1_157': 1161.0, 'init_ShelterA_1_158': 1164.0, 'init_ShelterA_1_159': 1191.0, 'init_ShelterA_1_160': 1193.0, 'init_ShelterA_1_162': 1195.0, 'init_ShelterA_1_163': 1197.0, 'init_ShelterA_1_164': 1199.0, 'init_ShelterA_1_165': 1203.0, 'newveh_ShelterA_1_188_21': 1209.0, 'newveh_ShelterA_1_182_20': 1214.0, 'newveh_ShelterA_1_169_19': 1219.0, 'newveh_ShelterA_2_167_0': 1223.0, 'init_ShelterA_1_192': 1226.0, 'init_ShelterA_1_193': 1230.0, 'newveh_ShelterA_2_179_11': 1231.0, 'newveh_ShelterA_2_178_10': 1236.0, 'newveh_ShelterA_2_177_9': 1241.0, 'newveh_ShelterA_2_176_8': 1247.0, 'newveh_ShelterA_2_175_7': 1255.0, 'newveh_ShelterA_2_174_6': 1259.0, 'newveh_ShelterA_2_173_5': 1264.0, 'init_ShelterA_1_194': 1275.0, 'newveh_ShelterA_2_172_4': 1276.0, 'init_ShelterA_1_197': 1285.0, 'newveh_ShelterA_2_171_3': 1286.0, 'init_ShelterA_1_198': 1291.0, 'newveh_ShelterA_2_170_2': 1291.0, 'init_ShelterA_1_201': 1295.0, 'newveh_ShelterA_1_200_25': 1302.0, 'newveh_ShelterA_2_168_1': 1302.0, 'newveh_ShelterA_1_202_26': 1306.0, 'newveh_ShelterA_2_180_12': 1309.0, 'newveh_ShelterA_2_181_13': 1314.0, 'newveh_ShelterA_2_183_14': 1320.0, 'newveh_ShelterA_2_184_15': 1325.0, 'newveh_ShelterA_2_185_16': 1331.0, 'newveh_ShelterA_2_186_17': 1339.0, 'newveh_ShelterA_2_187_18': 1344.0, 'newveh_ShelterA_2_191_24': 1348.0, 'init_ShelterA_2_226': 1353.0, 'init_ShelterA_2_228': 1367.0, 'newveh_ShelterA_2_190_23': 1395.0, 'newveh_ShelterA_1_207_27': 1398.0, 'newveh_ShelterA_2_189_22': 1417.0, 'init_ShelterA_1_195': 1420.0, 'init_ShelterA_1_196': 1422.0, 'init_ShelterA_1_199': 1424.0, 'init_ShelterA_1_203': 1426.0, 'init_ShelterA_1_204': 1429.0, 'init_ShelterA_1_218': 1431.0, 'init_ShelterA_1_219': 1434.0, 'init_ShelterA_1_221': 1437.0, 'init_ShelterA_1_222': 1440.0, 'init_ShelterA_1_223': 1455.0, 'init_ShelterA_1_224': 1457.0, 'init_ShelterA_1_225': 1459.0, 'init_ShelterA_1_240': 1459.0, 'init_ShelterA_1_227': 1462.0, 'init_ShelterA_1_229': 1464.0, 'init_ShelterA_1_230': 1466.0, 'init_ShelterA_1_231': 1476.0, 'init_ShelterA_1_232': 1478.0, 'init_ShelterA_1_233': 1480.0, 'init_ShelterA_1_234': 1482.0, 'init_ShelterA_1_241': 1482.0, 'init_ShelterA_1_242': 1488.0, 'init_ShelterA_1_244': 1497.0, 'init_ShelterA_1_246': 1501.0, 'init_ShelterA_1_248': 1506.0, 'newveh_ShelterA_2_217_29': 1507.0, 'newveh_ShelterA_2_215_28': 1516.0, 'newveh_ShelterA_2_220_30': 1521.0, 'newveh_ShelterA_2_205_31': 1525.0, 'init_ShelterA_1_238': 1537.0, 'init_ShelterA_1_239': 1541.0, 'init_ShelterA_1_249': 1542.0, 'init_ShelterA_1_250': 1552.0, 'init_ShelterA_1_251': 1558.0, 'init_ShelterA_1_252': 1564.0, 'newveh_ShelterA_2_206_32': 1564.0, 'init_ShelterA_1_253': 1569.0, 'newveh_ShelterA_2_208_33': 1570.0, 'init_ShelterA_1_254': 1575.0, 'init_ShelterA_1_255': 1582.0, 'init_ShelterA_1_256': 1589.0, 'newveh_ShelterA_2_209_34': 1595.0, 'init_ShelterA_1_257': 1597.0, 'newveh_ShelterA_2_210_35': 1602.0, 'init_ShelterA_1_258': 1606.0, 'newveh_ShelterA_2_212_37': 1608.0, 'init_ShelterA_1_259': 1614.0, 'newveh_ShelterA_2_211_36': 1615.0, 'init_ShelterA_1_260': 1620.0, 'newveh_ShelterA_2_213_38': 1623.0, 'init_ShelterA_1_261': 1624.0, 'newveh_ShelterA_2_214_39': 1627.0, 'init_ShelterA_1_263': 1629.0, 'newveh_ShelterA_2_216_40': 1632.0, 'init_ShelterA_1_266': 1636.0, 'init_ShelterA_1_268': 1643.0, 'init_ShelterA_1_272': 1649.0, 'init_ShelterA_1_275': 1655.0, 'init_ShelterA_1_279': 1663.0, 'init_ShelterA_1_281': 1671.0, 'init_ShelterA_1_284': 1680.0, 'newveh_ShelterA_2_235_41': 1683.0, 'init_ShelterA_1_285': 1689.0, 'newveh_ShelterA_2_236_42': 1695.0, 'init_ShelterA_1_286': 1698.0, 'newveh_ShelterA_2_237_43': 1700.0, 'init_ShelterA_1_287': 1706.0, 'init_ShelterA_1_288': 1712.0, 'init_ShelterA_1_291': 1717.0, 'init_ShelterA_1_292': 1723.0, 'newveh_ShelterA_1_247_46': 1727.0, 'init_ShelterA_1_298': 1732.0, 'init_ShelterA_1_280': 1738.0, 'init_ShelterA_1_283': 1740.0, 'init_ShelterA_1_306': 1740.0, 'init_ShelterA_1_307': 1747.0, 'init_ShelterA_2_311': 1749.0, 'init_ShelterA_2_312': 1751.0, 'newveh_ShelterA_1_264_47': 1760.0, 'newveh_ShelterA_1_270_48': 1764.0, 'newveh_ShelterA_1_273_53': 1769.0, 'newveh_ShelterA_2_243_44': 1786.0, 'newveh_ShelterA_2_245_45': 1791.0, 'newveh_ShelterA_2_310_82': 1806.0, 'newveh_ShelterA_1_267_52': 1811.0, 'newveh_ShelterA_2_309_81': 1815.0, 'newveh_ShelterA_1_277_58': 1837.0, 'newveh_ShelterA_2_308_80': 1838.0, 'init_ShelterA_1_295': 1840.0, 'init_ShelterA_1_297': 1842.0, 'init_ShelterA_1_300': 1844.0, 'init_ShelterA_1_304': 1846.0, 'init_ShelterA_1_322': 1846.0, 'init_ShelterA_1_305': 1848.0, 'newveh_ShelterA_2_262_49': 1871.0, 'newveh_ShelterA_2_274_51': 1876.0, 'newveh_ShelterA_2_269_50': 1886.0, 'newveh_ShelterA_2_323_85': 1899.0, 'newveh_ShelterA_2_329_86': 1911.0, 'init_ShelterA_1_317': 1913.0, 'init_ShelterA_1_335': 1913.0, 'init_ShelterA_1_318': 1915.0, 'newveh_ShelterA_1_299_60': 1922.0, 'newveh_ShelterA_2_278_57': 1922.0, 'init_ShelterA_1_337': 1930.0, 'init_ShelterA_1_340': 1935.0, 'init_ShelterA_1_341': 1939.0, 'newveh_ShelterA_2_276_56': 1961.0, 'newveh_ShelterA_2_271_55': 1970.0, 'newveh_ShelterA_2_265_54': 1978.0, 'init_ShelterA_1_319': 1980.0, 'init_ShelterA_1_346': 1999.0, 'newveh_ShelterA_2_282_59': 2002.0, 'init_ShelterA_1_320': 2004.0, 'init_ShelterA_1_321': 2006.0, 'init_ShelterA_2_353': 2006.0, 'init_ShelterA_1_325': 2008.0, 'init_ShelterA_1_326': 2010.0, 'init_ShelterA_1_327': 2012.0, 'init_ShelterA_1_328': 2014.0, 'init_ShelterA_1_330': 2017.0, 'init_ShelterA_1_331': 2020.0, 'init_ShelterA_1_368': 2021.0, 'init_ShelterA_1_332': 2022.0, 'init_ShelterA_2_369': 2023.0, 'init_ShelterA_1_334': 2026.0, 'init_ShelterA_1_338': 2029.0, 'newveh_ShelterA_2_289_61': 2042.0, 'newveh_ShelterA_2_302_67': 2049.0, 'newveh_ShelterA_2_301_66': 2054.0, 'newveh_ShelterA_2_296_65': 2060.0, 'newveh_ShelterA_2_294_64': 2065.0, 'newveh_ShelterA_2_293_63': 2070.0, 'newveh_ShelterA_2_365_104': 2077.0, 'newveh_ShelterA_2_363_103': 2082.0, 'newveh_ShelterA_2_357_102': 2087.0, 'newveh_ShelterA_2_355_101': 2093.0, 'newveh_ShelterA_2_354_100': 2101.0, 'init_ShelterA_2_395': 2106.0, 'newveh_ShelterA_2_352_99': 2108.0, 'newveh_ShelterA_2_367_108': 2116.0, 'newveh_ShelterA_2_362_107': 2124.0, 'newveh_ShelterA_2_361_106': 2133.0, 'newveh_ShelterA_2_290_62': 2142.0, 'newveh_ShelterA_2_303_68': 2164.0, 'init_ShelterA_1_345': 2166.0, 'init_ShelterA_1_347': 2168.0, 'init_ShelterA_1_348': 2170.0, 'init_ShelterA_1_349': 2172.0, 'init_ShelterA_1_350': 2174.0, 'newveh_ShelterA_1_336_75': 2175.0, 'init_ShelterA_1_351': 2176.0, 'init_ShelterA_1_370': 2179.0, 'newveh_ShelterA_1_339_76': 2180.0, 'newveh_ShelterA_2_313_69': 2187.0, 'newveh_ShelterA_1_324_74': 2189.0, 'newveh_ShelterA_2_316_72': 2192.0, 'newveh_ShelterA_1_383_87': 2196.0, 'newveh_ShelterA_1_366_84': 2200.0, 'newveh_ShelterA_2_315_71': 2200.0, 'newveh_ShelterA_1_359_83': 2204.0, 'newveh_ShelterA_2_314_70': 2209.0, 'newveh_ShelterA_2_360_105': 2218.0, 'newveh_ShelterA_2_364_111': 2228.0, 'newveh_ShelterA_2_358_110': 2237.0, 'newveh_ShelterA_2_356_109': 2259.0, 'init_ShelterA_1_374': 2261.0, 'init_ShelterA_1_376': 2263.0, 'init_ShelterA_1_377': 2266.0, 'init_ShelterA_1_378': 2268.0, 'init_ShelterA_1_379': 2270.0, 'init_ShelterA_1_380': 2272.0, 'init_ShelterA_1_381': 2274.0, 'init_ShelterA_1_388': 2276.0, 'init_ShelterA_1_389': 2279.0, 'init_ShelterA_1_390': 2281.0, 'init_ShelterA_1_391': 2284.0, 'init_ShelterA_1_392': 2287.0, 'init_ShelterA_1_393': 2290.0, 'init_ShelterA_1_394': 2293.0, 'init_ShelterA_1_396': 2296.0, 'newveh_ShelterA_2_333_73': 2304.0, 'init_ShelterA_1_397': 2307.0, 'newveh_ShelterA_2_342_77': 2316.0, 'newveh_ShelterA_2_371_88': 2324.0, 'newveh_ShelterA_2_344_79': 2333.0, 'newveh_ShelterA_2_343_78': 2341.0, 'newveh_ShelterA_2_373_90': 2351.0, 'newveh_ShelterA_2_372_89': 2359.0, 'newveh_ShelterA_2_386_95': 2365.0, 'newveh_ShelterA_2_385_94': 2371.0, 'newveh_ShelterA_2_384_93': 2379.0, 'newveh_ShelterA_2_375_91': 2384.0, 'newveh_ShelterA_2_382_92': 2389.0, 'newveh_ShelterA_2_387_96': 2397.0, 'newveh_ShelterA_2_398_97': 2402.0, 'newveh_ShelterA_2_399_98': 2406.0}
vehicle_abandant_time_by_pedestrianID_dict:{}
walking_distance_by_pedestrianID_dict:{}
route_change_time_by_vehID_dict:{'init_ShelterA_2_46': 370.0, 'init_ShelterA_2_65': 430.0, 'init_ShelterA_1_61': 450.0, 'init_ShelterA_1_60': 460.0, 'init_ShelterA_1_66': 480.0, 'init_ShelterA_1_68': 480.0, 'init_ShelterA_1_69': 480.0, 'init_ShelterA_1_70': 480.0, 'init_ShelterA_1_64': 490.0, 'init_ShelterA_1_67': 490.0, 'init_ShelterA_1_62': 500.0, 'init_ShelterA_1_73': 510.0, 'init_ShelterA_1_74': 510.0, 'init_ShelterA_2_83': 520.0, 'init_ShelterA_1_84': 530.0, 'init_ShelterA_1_85': 530.0, 'init_ShelterA_1_86': 530.0, 'init_ShelterA_1_81': 540.0, 'init_ShelterA_1_82': 540.0, 'init_ShelterA_1_77': 550.0, 'init_ShelterA_1_78': 550.0, 'init_ShelterA_1_79': 550.0, 'init_ShelterA_1_80': 550.0, 'init_ShelterA_1_87': 550.0, 'init_ShelterA_2_76': 550.0, 'init_ShelterA_1_75': 560.0, 'init_ShelterA_1_104': 610.0, 'init_ShelterA_1_106': 610.0, 'init_ShelterA_1_99': 610.0, 'init_ShelterA_2_105': 610.0, 'init_ShelterA_1_101': 620.0, 'init_ShelterA_1_96': 630.0, 'init_ShelterA_1_100': 650.0, 'init_ShelterA_1_98': 650.0, 'init_ShelterA_1_102': 660.0, 'init_ShelterA_1_94': 660.0, 'init_ShelterA_1_92': 670.0, 'init_ShelterA_1_93': 670.0, 'init_ShelterA_1_97': 670.0, 'init_ShelterA_2_108': 670.0, 'init_ShelterA_1_113': 680.0, 'init_ShelterA_1_114': 680.0, 'init_ShelterA_2_119': 690.0, 'init_ShelterA_1_115': 700.0, 'init_ShelterA_1_116': 700.0, 'init_ShelterA_1_120': 700.0, 'init_ShelterA_1_122': 700.0, 'init_ShelterA_1_123': 700.0, 'init_ShelterA_1_167': 720.0, 'init_ShelterA_1_168': 720.0, 'init_ShelterA_1_170': 720.0, 'init_ShelterA_1_171': 720.0, 'init_ShelterA_1_172': 720.0, 'init_ShelterA_1_173': 720.0, 'init_ShelterA_1_174': 720.0, 'init_ShelterA_1_175': 720.0, 'init_ShelterA_1_176': 720.0, 'init_ShelterA_1_177': 720.0, 'init_ShelterA_1_178': 720.0, 'init_ShelterA_1_179': 720.0, 'init_ShelterA_1_180': 720.0, 'init_ShelterA_1_181': 720.0, 'init_ShelterA_1_183': 720.0, 'init_ShelterA_1_184': 720.0, 'init_ShelterA_1_185': 720.0, 'init_ShelterA_1_186': 720.0, 'init_ShelterA_1_187': 720.0, 'init_ShelterA_2_169': 720.0, 'init_ShelterA_2_182': 720.0, 'init_ShelterA_2_188': 720.0, 'init_ShelterA_1_110': 730.0, 'init_ShelterA_1_112': 730.0, 'init_ShelterA_1_189': 730.0, 'init_ShelterA_1_190': 730.0, 'init_ShelterA_1_191': 730.0, 'init_ShelterA_1_125': 740.0, 'init_ShelterA_2_126': 760.0, 'init_ShelterA_1_127': 770.0, 'init_ShelterA_1_128': 770.0, 'init_ShelterA_1_129': 770.0, 'init_ShelterA_1_131': 770.0, 'init_ShelterA_1_133': 770.0, 'init_ShelterA_1_134': 770.0, 'init_ShelterA_1_124': 780.0, 'init_ShelterA_1_130': 780.0, 'init_ShelterA_1_132': 780.0, 'init_ShelterA_1_136': 780.0, 'init_ShelterA_1_137': 780.0, 'init_ShelterA_1_141': 790.0, 'init_ShelterA_1_142': 790.0, 'init_ShelterA_1_140': 800.0, 'init_ShelterA_2_200': 820.0, 'init_ShelterA_1_135': 830.0, 'init_ShelterA_1_143': 830.0, 'init_ShelterA_1_144': 830.0, 'init_ShelterA_2_202': 830.0, 'init_ShelterA_1_146': 840.0, 'init_ShelterA_1_147': 840.0, 'init_ShelterA_1_148': 840.0, 'init_ShelterA_1_145': 850.0, 'init_ShelterA_1_150': 850.0, 'init_ShelterA_1_151': 850.0, 'init_ShelterA_1_152': 850.0, 'init_ShelterA_1_154': 850.0, 'init_ShelterA_1_139': 860.0, 'init_ShelterA_1_149': 860.0, 'init_ShelterA_1_153': 860.0, 'init_ShelterA_1_156': 860.0, 'init_ShelterA_1_157': 860.0, 'init_ShelterA_1_158': 860.0, 'init_ShelterA_1_160': 860.0, 'init_ShelterA_1_159': 870.0, 'init_ShelterA_2_207': 870.0, 'init_ShelterA_1_215': 880.0, 'init_ShelterA_1_217': 880.0, 'init_ShelterA_1_220': 880.0, 'init_ShelterA_1_205': 890.0, 'init_ShelterA_1_206': 890.0, 'init_ShelterA_1_208': 890.0, 'init_ShelterA_1_209': 890.0, 'init_ShelterA_1_210': 890.0, 'init_ShelterA_1_211': 890.0, 'init_ShelterA_1_212': 890.0, 'init_ShelterA_1_213': 890.0, 'init_ShelterA_1_214': 890.0, 'init_ShelterA_1_216': 890.0, 'init_ShelterA_1_162': 900.0, 'init_ShelterA_1_163': 910.0, 'init_ShelterA_1_164': 910.0, 'init_ShelterA_1_165': 910.0, 'init_ShelterA_1_235': 970.0, 'init_ShelterA_1_236': 970.0, 'init_ShelterA_1_237': 970.0, 'init_ShelterA_1_243': 1070.0, 'init_ShelterA_1_245': 1070.0, 'init_ShelterA_2_247': 1070.0, 'init_ShelterA_2_226': 1120.0, 'init_ShelterA_1_221': 1130.0, 'init_ShelterA_1_227': 1130.0, 'init_ShelterA_2_264': 1130.0, 'init_ShelterA_2_270': 1130.0, 'init_ShelterA_1_204': 1140.0, 'init_ShelterA_1_219': 1140.0, 'init_ShelterA_1_225': 1140.0, 'init_ShelterA_1_262': 1140.0, 'init_ShelterA_1_269': 1140.0, 'init_ShelterA_1_274': 1140.0, 'init_ShelterA_2_267': 1140.0, 'init_ShelterA_2_273': 1140.0, 'init_ShelterA_1_199': 1150.0, 'init_ShelterA_1_203': 1150.0, 'init_ShelterA_1_218': 1150.0, 'init_ShelterA_1_224': 1150.0, 'init_ShelterA_1_265': 1150.0, 'init_ShelterA_1_271': 1150.0, 'init_ShelterA_1_276': 1150.0, 'init_ShelterA_1_278': 1150.0, 'init_ShelterA_2_228': 1150.0, 'init_ShelterA_2_277': 1150.0, 'init_ShelterA_1_222': 1160.0, 'init_ShelterA_1_223': 1160.0, 'init_ShelterA_1_229': 1160.0, 'init_ShelterA_1_282': 1160.0, 'init_ShelterA_1_232': 1170.0, 'init_ShelterA_1_233': 1170.0, 'init_ShelterA_1_234': 1170.0, 'init_ShelterA_1_195': 1180.0, 'init_ShelterA_1_196': 1180.0, 'init_ShelterA_1_230': 1180.0, 'init_ShelterA_1_231': 1180.0, 'init_ShelterA_2_299': 1220.0, 'init_ShelterA_1_289': 1230.0, 'init_ShelterA_1_290': 1230.0, 'init_ShelterA_1_293': 1230.0, 'init_ShelterA_1_294': 1230.0, 'init_ShelterA_1_296': 1230.0, 'init_ShelterA_1_301': 1230.0, 'init_ShelterA_1_302': 1230.0, 'init_ShelterA_1_303': 1230.0, 'init_ShelterA_1_238': 1290.0, 'init_ShelterA_1_239': 1290.0, 'init_ShelterA_1_313': 1310.0, 'init_ShelterA_1_314': 1310.0, 'init_ShelterA_1_315': 1310.0, 'init_ShelterA_1_316': 1310.0, 'init_ShelterA_1_333': 1410.0, 'init_ShelterA_2_324': 1410.0, 'init_ShelterA_2_336': 1420.0, 'init_ShelterA_1_283': 1430.0, 'init_ShelterA_2_339': 1430.0, 'init_ShelterA_1_280': 1440.0, 'init_ShelterA_1_342': 1470.0, 'init_ShelterA_1_343': 1470.0, 'init_ShelterA_1_344': 1470.0, 'init_ShelterA_2_311': 1500.0, 'init_ShelterA_1_305': 1510.0, 'init_ShelterA_1_308': 1510.0, 'init_ShelterA_1_309': 1510.0, 'init_ShelterA_1_310': 1510.0, 'init_ShelterA_2_312': 1510.0, 'init_ShelterA_1_297': 1520.0, 'init_ShelterA_1_300': 1520.0, 'init_ShelterA_1_304': 1520.0, 'init_ShelterA_1_318': 1520.0, 'init_ShelterA_1_295': 1530.0, 'init_ShelterA_1_319': 1550.0, 'init_ShelterA_1_326': 1560.0, 'init_ShelterA_1_330': 1560.0, 'init_ShelterA_1_325': 1570.0, 'init_ShelterA_1_327': 1570.0, 'init_ShelterA_1_328': 1570.0, 'init_ShelterA_1_331': 1570.0, 'init_ShelterA_1_334': 1570.0, 'init_ShelterA_1_332': 1580.0, 'init_ShelterA_2_359': 1580.0, 'init_ShelterA_2_366': 1580.0, 'init_ShelterA_1_317': 1590.0, 'init_ShelterA_1_320': 1590.0, 'init_ShelterA_1_321': 1590.0, 'init_ShelterA_1_323': 1600.0, 'init_ShelterA_1_329': 1610.0, 'init_ShelterA_1_338': 1640.0, 'init_ShelterA_1_345': 1650.0, 'init_ShelterA_2_383': 1650.0, 'init_ShelterA_1_347': 1660.0, 'init_ShelterA_1_348': 1660.0, 'init_ShelterA_1_371': 1660.0, 'init_ShelterA_1_372': 1660.0, 'init_ShelterA_1_373': 1660.0, 'init_ShelterA_1_375': 1660.0, 'init_ShelterA_1_382': 1660.0, 'init_ShelterA_1_384': 1660.0, 'init_ShelterA_1_385': 1660.0, 'init_ShelterA_1_386': 1660.0, 'init_ShelterA_1_387': 1660.0, 'init_ShelterA_1_398': 1730.0, 'init_ShelterA_1_399': 1730.0, 'init_ShelterA_2_353': 1770.0, 'init_ShelterA_1_351': 1780.0, 'init_ShelterA_1_352': 1780.0, 'init_ShelterA_1_354': 1780.0, 'init_ShelterA_1_355': 1780.0, 'init_ShelterA_1_357': 1780.0, 'init_ShelterA_1_363': 1780.0, 'init_ShelterA_1_365': 1780.0, 'init_ShelterA_1_350': 1790.0, 'init_ShelterA_1_360': 1790.0, 'init_ShelterA_1_361': 1790.0, 'init_ShelterA_1_362': 1790.0, 'init_ShelterA_1_367': 1790.0, 'init_ShelterA_1_349': 1800.0, 'init_ShelterA_1_356': 1800.0, 'init_ShelterA_1_358': 1800.0, 'init_ShelterA_1_364': 1800.0, 'init_ShelterA_1_370': 1810.0, 'init_ShelterA_2_369': 1810.0, 'init_ShelterA_1_376': 1820.0, 'init_ShelterA_1_377': 1820.0, 'init_ShelterA_1_378': 1820.0, 'init_ShelterA_1_379': 1820.0, 'init_ShelterA_1_381': 1820.0, 'init_ShelterA_1_388': 1820.0, 'init_ShelterA_1_389': 1820.0, 'init_ShelterA_1_374': 1830.0, 'init_ShelterA_1_380': 1830.0, 'init_ShelterA_1_390': 1830.0, 'init_ShelterA_1_391': 1830.0, 'init_ShelterA_2_395': 1940.0, 'init_ShelterA_1_397': 1950.0, 'init_ShelterA_1_393': 1960.0, 'init_ShelterA_1_394': 1960.0, 'init_ShelterA_1_396': 1960.0, 'init_ShelterA_1_392': 1970.0}
pedestrian_count:0
route_changed_vehicle_count:273
route_change_event_count:273
rate_vehicle_abandonment:0.00%
wrong_way_driving_count:0
vehicle_abandonment_count:0
normalcy_bias_route_change_count:124
majority_bias_route_change_count:149
lane_changed_vehicle_count:0
info_obtained_lanechange_count:0
elapsed_time_lanechange_count:0
majority_bias_lanechange_count:0

=== Job Result ===
end=2026-07-13T03:54:42+0900
elapsed_seconds=434
exit_code=0
status=SUCCESS
