=== Job Info ===
job_name=va_s3_e1.0_v1.0_r39
host=schubert
pid=111582
scenario=3
early_rate=1.0
v2v_rate=1.0
run_id=39
config=/home/katagi/vehicle-assistant-system/scenarios/JIP/configs/config_scenario_3.toml
output_dir=/home/katagi/vehicle-assistant-system/schubert_logs/va_s3_e1.0_v1.0_r39
start=2026-07-13T01:07:08+0900
python_version=Python 3.12.3
sumo_version=Eclipse SUMO sumo Version v1_23_1+0435-630512a

=== Command ===
cd /home/katagi/vehicle-assistant-system/schubert_logs/va_s3_e1.0_v1.0_r39
PYTHONPATH=/home/katagi/vehicle-assistant-system:/home/katagi/tmp/sumo/tools:/home/katagi/local/sumo/tools:/home/katagi/tmp/sumo/tools:/home/katagi/local/sumo/tools:/home/katagi/tmp/sumo/tools:/home/katagi/local/sumo/tools: python3 -W ignore::UserWarning -m scenarios.JIP.1-1-4.simulation.runner_simulator --nogui /home/katagi/vehicle-assistant-system/scenarios/JIP/configs/config_scenario_3.toml 1.0 1.0
simulation_pid=111602
Step #0.00 (1ms ~= 1000.00*RT, ~1000.00UPS, TraCI: 338ms, vehicles TOT 1 ACT 1 BUF 0)     Step #100.00 (0ms ?*RT. ?UPS, TraCI: 18ms, vehicles TOT 26 ACT 26 BUF 0)                  Step #200.00 (1ms ~= 1000.00*RT, ~51000.00UPS, TraCI: 38ms, vehicles TOT 51 ACT 51 BUF 0) Step #300.00 (0ms ?*RT. ?UPS, TraCI: 54ms, vehicles TOT 77 ACT 77 BUF 0)                  Step #400.00 (0ms ?*RT. ?UPS, TraCI: 1803ms, vehicles TOT 104 ACT 104 BUF 0)              Step #500.00 (1ms ~= 1000.00*RT, ~131000.00UPS, TraCI: 1596ms, vehicles TOT 131 ACT 131 BUStep #600.00 (1ms ~= 1000.00*RT, ~158000.00UPS, TraCI: 1424ms, vehicles TOT 158 ACT 158 BUStep #700.00 (0ms ?*RT. ?UPS, TraCI: 989ms, vehicles TOT 186 ACT 186 BUF 0)               Step #800.00 (1ms ~= 1000.00*RT, ~210000.00UPS, TraCI: 589ms, vehicles TOT 210 ACT 210 BUFStep #900.00 (1ms ~= 1000.00*RT, ~211000.00UPS, TraCI: 1624ms, vehicles TOT 239 ACT 211 BUStep #1000.00 (0ms ?*RT. ?UPS, TraCI: 1809ms, vehicles TOT 275 ACT 232 BUF 42)            Step #1100.00 (1ms ~= 1000.00*RT, ~253000.00UPS, TraCI: 795ms, vehicles TOT 301 ACT 253 BUStep #1200.00 (1ms ~= 1000.00*RT, ~281000.00UPS, TraCI: 1734ms, vehicles TOT 336 ACT 281 BStep #1300.00 (1ms ~= 1000.00*RT, ~302000.00UPS, TraCI: 2284ms, vehicles TOT 364 ACT 302 BStep #1400.00 (1ms ~= 1000.00*RT, ~322000.00UPS, TraCI: 2977ms, vehicles TOT 393 ACT 322 BStep #1500.00 (0ms ?*RT. ?UPS, TraCI: 1841ms, vehicles TOT 432 ACT 338 BUF 62)            Step #1600.00 (1ms ~= 1000.00*RT, ~365000.00UPS, TraCI: 2102ms, vehicles TOT 467 ACT 365 BStep #1700.00 (1ms ~= 1000.00*RT, ~386000.00UPS, TraCI: 1516ms, vehicles TOT 501 ACT 386 BStep #1800.00 (0ms ?*RT. ?UPS, TraCI: 2193ms, vehicles TOT 515 ACT 400 BUF 0)             Step #1900.00 (1ms ~= 1000.00*RT, ~400000.00UPS, TraCI: 1525ms, vehicles TOT 515 ACT 400 BStep #2000.00 (0ms ?*RT. ?UPS, TraCI: 544ms, vehicles TOT 515 ACT 400 BUF 0)              Step #2100.00 (0ms ?*RT. ?UPS, TraCI: 110ms, vehicles TOT 515 ACT 400 BUF 0)              Step #2200.00 (0ms ?*RT. ?UPS, TraCI: 99ms, vehicles TOT 515 ACT 400 BUF 0)               Step #2300.00 (0ms ?*RT. ?UPS, TraCI: 96ms, vehicles TOT 515 ACT 400 BUF 0)               Step #2400.00 (0ms ?*RT. ?UPS, TraCI: 82ms, vehicles TOT 515 ACT 400 BUF 0)               Step #2500.00 (0ms ?*RT. ?UPS, TraCI: 79ms, vehicles TOT 515 ACT 400 BUF 0)               Step #2600.00 (0ms ?*RT. ?UPS, TraCI: 78ms, vehicles TOT 515 ACT 400 BUF 0)               Step #2700.00 (0ms ?*RT. ?UPS, TraCI: 73ms, vehicles TOT 515 ACT 400 BUF 0)               Step #2800.00 (0ms ?*RT. ?UPS, TraCI: 79ms, vehicles TOT 515 ACT 400 BUF 0)               Step #2900.00 (0ms ?*RT. ?UPS, TraCI: 80ms, vehicles TOT 515 ACT 400 BUF 0)               Step #3000.00 (0ms ?*RT. ?UPS, TraCI: 76ms, vehicles TOT 515 ACT 400 BUF 0)               
 Retrying in 1 seconds
出現数: {'A1': 362, 'A2': 38}
割合:
  Total: 400
  A1: 362 (90.50%)
  A2: 38 (9.50%)
  B1: 0 (0.00%)
  B2: 0 (0.00%)
mean elapsed_time: 535.78
OK all vehs arrived 
平均渋滞継続時間: 445.07秒
OK all vehicle abandonment were detected
283
117
===== Simlation Result Summary =====
avg_congestion_duration: 445.07 
arrival_time_by_vehID_dict:{'init_ShelterA_1_0': 211.0, 'init_ShelterA_1_1': 220.0, 'init_ShelterA_1_2': 226.0, 'init_ShelterA_1_3': 231.0, 'init_ShelterA_1_5': 236.0, 'init_ShelterA_1_6': 240.0, 'init_ShelterA_1_7': 285.0, 'init_ShelterA_1_8': 292.0, 'init_ShelterA_1_9': 297.0, 'init_ShelterA_1_11': 303.0, 'init_ShelterA_1_12': 309.0, 'init_ShelterA_1_13': 316.0, 'init_ShelterA_2_4': 318.0, 'init_ShelterA_1_14': 323.0, 'init_ShelterA_1_15': 331.0, 'init_ShelterA_1_16': 340.0, 'init_ShelterA_1_17': 349.0, 'init_ShelterA_1_18': 358.0, 'init_ShelterA_1_19': 368.0, 'init_ShelterA_1_20': 375.0, 'init_ShelterA_2_10': 376.0, 'init_ShelterA_1_21': 383.0, 'init_ShelterA_1_22': 391.0, 'init_ShelterA_1_23': 400.0, 'init_ShelterA_1_24': 409.0, 'init_ShelterA_1_25': 419.0, 'init_ShelterA_1_26': 428.0, 'init_ShelterA_1_27': 438.0, 'init_ShelterA_1_28': 448.0, 'init_ShelterA_1_29': 457.0, 'init_ShelterA_1_30': 467.0, 'init_ShelterA_1_31': 477.0, 'init_ShelterA_2_33': 484.0, 'init_ShelterA_1_32': 486.0, 'init_ShelterA_1_34': 496.0, 'init_ShelterA_1_35': 506.0, 'init_ShelterA_1_36': 515.0, 'init_ShelterA_1_37': 525.0, 'init_ShelterA_1_38': 535.0, 'init_ShelterA_1_42': 541.0, 'init_ShelterA_1_39': 544.0, 'init_ShelterA_1_40': 554.0, 'init_ShelterA_1_41': 563.0, 'init_ShelterA_1_43': 573.0, 'init_ShelterA_1_44': 582.0, 'init_ShelterA_1_46': 582.0, 'init_ShelterA_1_51': 585.0, 'init_ShelterA_1_52': 587.0, 'init_ShelterA_1_53': 590.0, 'init_ShelterA_1_45': 592.0, 'init_ShelterA_1_54': 593.0, 'init_ShelterA_1_55': 596.0, 'init_ShelterA_1_56': 600.0, 'init_ShelterA_1_47': 601.0, 'init_ShelterA_1_48': 611.0, 'init_ShelterA_2_49': 613.0, 'init_ShelterA_1_50': 623.0, 'init_ShelterA_1_57': 633.0, 'init_ShelterA_1_58': 633.0, 'init_ShelterA_1_59': 642.0, 'init_ShelterA_1_61': 645.0, 'init_ShelterA_1_65': 647.0, 'init_ShelterA_1_60': 652.0, 'init_ShelterA_1_62': 662.0, 'init_ShelterA_1_68': 669.0, 'init_ShelterA_1_63': 671.0, 'init_ShelterA_1_70': 671.0, 'init_ShelterA_1_71': 674.0, 'init_ShelterA_1_73': 677.0, 'init_ShelterA_1_64': 681.0, 'init_ShelterA_1_66': 690.0, 'init_ShelterA_1_67': 699.0, 'init_ShelterA_2_69': 701.0, 'init_ShelterA_1_72': 712.0, 'init_ShelterA_1_74': 714.0, 'init_ShelterA_2_75': 714.0, 'init_ShelterA_1_79': 721.0, 'init_ShelterA_1_76': 724.0, 'init_ShelterA_1_80': 724.0, 'init_ShelterA_1_77': 733.0, 'init_ShelterA_1_78': 740.0, 'init_ShelterA_1_81': 747.0, 'init_ShelterA_2_89': 749.0, 'init_ShelterA_1_82': 754.0, 'init_ShelterA_1_83': 758.0, 'init_ShelterA_1_92': 758.0, 'init_ShelterA_1_84': 760.0, 'init_ShelterA_1_85': 765.0, 'init_ShelterA_1_86': 767.0, 'init_ShelterA_1_93': 767.0, 'init_ShelterA_1_87': 770.0, 'init_ShelterA_1_88': 773.0, 'init_ShelterA_1_90': 776.0, 'init_ShelterA_1_94': 777.0, 'init_ShelterA_1_91': 778.0, 'init_ShelterA_2_95': 779.0, 'init_ShelterA_1_96': 790.0, 'init_ShelterA_1_99': 798.0, 'init_ShelterA_1_100': 804.0, 'init_ShelterA_1_101': 809.0, 'init_ShelterA_1_102': 813.0, 'init_ShelterA_1_97': 819.0, 'init_ShelterA_1_110': 825.0, 'init_ShelterA_2_114': 827.0, 'init_ShelterA_1_98': 834.0, 'init_ShelterA_2_115': 836.0, 'init_ShelterA_1_103': 837.0, 'init_ShelterA_1_104': 841.0, 'init_ShelterA_1_122': 862.0, 'init_ShelterA_2_123': 864.0, 'init_ShelterA_1_105': 882.0, 'init_ShelterA_1_106': 884.0, 'init_ShelterA_1_107': 886.0, 'init_ShelterA_1_108': 896.0, 'init_ShelterA_1_109': 906.0, 'init_ShelterA_1_111': 908.0, 'init_ShelterA_1_127': 913.0, 'init_ShelterA_1_112': 918.0, 'init_ShelterA_1_128': 919.0, 'init_ShelterA_1_113': 920.0, 'init_ShelterA_2_130': 921.0, 'init_ShelterA_1_116': 922.0, 'init_ShelterA_1_136': 937.0, 'init_ShelterA_1_117': 938.0, 'init_ShelterA_1_118': 942.0, 'init_ShelterA_1_119': 943.0, 'init_ShelterA_1_120': 945.0, 'init_ShelterA_1_138': 946.0, 'init_ShelterA_1_121': 948.0, 'init_ShelterA_1_124': 951.0, 'init_ShelterA_1_139': 952.0, 'init_ShelterA_1_125': 954.0, 'init_ShelterA_2_140': 954.0, 'init_ShelterA_1_141': 958.0, 'init_ShelterA_1_126': 1007.0, 'init_ShelterA_1_143': 1007.0, 'init_ShelterA_1_129': 1009.0, 'init_ShelterA_1_145': 1012.0, 'init_ShelterA_2_146': 1014.0, 'init_ShelterA_1_150': 1022.0, 'init_ShelterA_1_131': 1024.0, 'init_ShelterA_1_132': 1032.0, 'init_ShelterA_1_133': 1034.0, 'init_ShelterA_1_154': 1034.0, 'init_ShelterA_1_134': 1036.0, 'init_ShelterA_1_135': 1039.0, 'init_ShelterA_1_137': 1042.0, 'init_ShelterA_1_155': 1042.0, 'init_ShelterA_1_142': 1045.0, 'init_ShelterA_1_156': 1046.0, 'init_ShelterA_2_159': 1077.0, 'init_ShelterA_1_161': 1096.0, 'init_ShelterA_1_162': 1106.0, 'init_ShelterA_1_144': 1107.0, 'init_ShelterA_1_163': 1112.0, 'init_ShelterA_1_165': 1120.0, 'init_ShelterA_1_167': 1124.0, 'init_ShelterA_2_170': 1126.0, 'init_ShelterA_1_147': 1134.0, 'init_ShelterA_1_175': 1135.0, 'init_ShelterA_1_148': 1137.0, 'init_ShelterA_1_149': 1139.0, 'init_ShelterA_1_151': 1142.0, 'init_ShelterA_1_152': 1144.0, 'init_ShelterA_1_153': 1147.0, 'init_ShelterA_1_157': 1150.0, 'init_ShelterA_1_158': 1153.0, 'init_ShelterA_1_160': 1156.0, 'init_ShelterA_1_177': 1191.0, 'init_ShelterA_2_180': 1193.0, 'init_ShelterA_1_182': 1200.0, 'init_ShelterA_2_213': 1202.0, 'init_ShelterA_1_214': 1209.0, 'init_ShelterA_1_215': 1214.0, 'init_ShelterA_1_216': 1218.0, 'init_ShelterA_1_164': 1228.0, 'init_ShelterA_1_166': 1230.0, 'init_ShelterA_1_168': 1232.0, 'init_ShelterA_1_169': 1234.0, 'init_ShelterA_1_171': 1237.0, 'init_ShelterA_1_172': 1240.0, 'init_ShelterA_1_173': 1242.0, 'init_ShelterA_1_174': 1246.0, 'init_ShelterA_1_176': 1260.0, 'init_ShelterA_1_178': 1262.0, 'init_ShelterA_1_179': 1276.0, 'init_ShelterA_1_181': 1277.0, 'init_ShelterA_1_183': 1291.0, 'init_ShelterA_1_184': 1293.0, 'newveh_ShelterA_2_185_0': 1313.0, 'init_ShelterA_1_217': 1315.0, 'newveh_ShelterA_2_186_1': 1330.0, 'newveh_ShelterA_2_187_2': 1335.0, 'newveh_ShelterA_1_206_27': 1367.0, 'newveh_ShelterA_2_188_3': 1375.0, 'newveh_ShelterA_1_204_26': 1377.0, 'newveh_ShelterA_1_202_25': 1384.0, 'newveh_ShelterA_2_190_4': 1384.0, 'newveh_ShelterA_2_191_5': 1389.0, 'newveh_ShelterA_1_189_24': 1390.0, 'newveh_ShelterA_2_192_6': 1394.0, 'init_ShelterA_1_218': 1397.0, 'newveh_ShelterA_2_193_7': 1398.0, 'init_ShelterA_1_219': 1403.0, 'newveh_ShelterA_2_194_8': 1408.0, 'init_ShelterA_1_220': 1411.0, 'newveh_ShelterA_2_196_10': 1415.0, 'init_ShelterA_1_221': 1419.0, 'newveh_ShelterA_2_195_9': 1421.0, 'newveh_ShelterA_2_197_11': 1426.0, 'init_ShelterA_1_225': 1428.0, 'newveh_ShelterA_2_198_12': 1432.0, 'init_ShelterA_1_229': 1436.0, 'newveh_ShelterA_2_199_13': 1439.0, 'init_ShelterA_1_230': 1441.0, 'newveh_ShelterA_2_200_14': 1446.0, 'init_ShelterA_1_232': 1448.0, 'init_ShelterA_1_235': 1452.0, 'newveh_ShelterA_2_201_15': 1453.0, 'init_ShelterA_1_240': 1456.0, 'newveh_ShelterA_2_203_16': 1462.0, 'init_ShelterA_1_248': 1468.0, 'newveh_ShelterA_2_205_17': 1470.0, 'init_ShelterA_1_250': 1476.0, 'newveh_ShelterA_2_208_19': 1479.0, 'newveh_ShelterA_2_207_18': 1488.0, 'newveh_ShelterA_1_227_28': 1493.0, 'newveh_ShelterA_2_209_20': 1497.0, 'init_ShelterA_1_257': 1500.0, 'newveh_ShelterA_2_211_22': 1504.0, 'init_ShelterA_1_259': 1507.0, 'newveh_ShelterA_2_210_21': 1509.0, 'init_ShelterA_1_260': 1511.0, 'newveh_ShelterA_2_212_23': 1513.0, 'init_ShelterA_1_261': 1515.0, 'newveh_ShelterA_2_252_60': 1535.0, 'init_ShelterA_1_243': 1548.0, 'init_ShelterA_1_262': 1550.0, 'init_ShelterA_1_244': 1555.0, 'init_ShelterA_1_263': 1555.0, 'init_ShelterA_1_245': 1558.0, 'init_ShelterA_1_246': 1560.0, 'init_ShelterA_1_247': 1566.0, 'init_ShelterA_1_249': 1568.0, 'init_ShelterA_1_251': 1570.0, 'init_ShelterA_1_253': 1572.0, 'init_ShelterA_1_254': 1574.0, 'newveh_ShelterA_1_239_42': 1577.0, 'init_ShelterA_1_275': 1632.0, 'newveh_ShelterA_2_267_67': 1637.0, 'init_ShelterA_1_277': 1641.0, 'newveh_ShelterA_2_231_29': 1642.0, 'init_ShelterA_1_280': 1645.0, 'newveh_ShelterA_2_276_68': 1653.0, 'newveh_ShelterA_2_233_30': 1660.0, 'newveh_ShelterA_2_234_31': 1666.0, 'newveh_ShelterA_2_238_36': 1671.0, 'init_ShelterA_1_292': 1672.0, 'newveh_ShelterA_2_237_35': 1679.0, 'newveh_ShelterA_2_236_34': 1683.0, 'init_ShelterA_1_265': 1685.0, 'newveh_ShelterA_2_223_37': 1694.0, 'newveh_ShelterA_2_222_32': 1701.0, 'newveh_ShelterA_2_226_33': 1708.0, 'newveh_ShelterA_2_242_41': 1716.0, 'newveh_ShelterA_2_241_40': 1723.0, 'newveh_ShelterA_2_228_39': 1728.0, 'newveh_ShelterA_2_224_38': 1732.0, 'init_ShelterA_1_278': 1736.0, 'init_ShelterA_1_279': 1738.0, 'init_ShelterA_1_281': 1740.0, 'init_ShelterA_1_282': 1742.0, 'init_ShelterA_1_283': 1744.0, 'init_ShelterA_1_285': 1746.0, 'newveh_ShelterA_1_266_47': 1746.0, 'init_ShelterA_1_313': 1751.0, 'init_ShelterA_1_286': 1753.0, 'init_ShelterA_1_316': 1759.0, 'newveh_ShelterA_2_256_43': 1782.0, 'init_ShelterA_1_291': 1784.0, 'init_ShelterA_1_294': 1786.0, 'newveh_ShelterA_2_255_44': 1796.0, 'newveh_ShelterA_2_264_46': 1801.0, 'newveh_ShelterA_2_258_45': 1806.0, 'init_ShelterA_1_322': 1829.0, 'newveh_ShelterA_2_297_78': 1831.0, 'init_ShelterA_1_324': 1838.0, 'newveh_ShelterA_2_284_77': 1839.0, 'newveh_ShelterA_2_295_79': 1844.0, 'init_ShelterA_1_326': 1845.0, 'init_ShelterA_1_327': 1851.0, 'newveh_ShelterA_2_317_95': 1853.0, 'init_ShelterA_1_328': 1859.0, 'init_ShelterA_1_331': 1865.0, 'init_ShelterA_1_332': 1870.0, 'newveh_ShelterA_2_310_94': 1873.0, 'init_ShelterA_1_334': 1874.0, 'init_ShelterA_1_296': 1876.0, 'init_ShelterA_1_298': 1878.0, 'init_ShelterA_1_299': 1880.0, 'init_ShelterA_1_300': 1882.0, 'init_ShelterA_1_301': 1884.0, 'init_ShelterA_1_302': 1886.0, 'init_ShelterA_1_303': 1889.0, 'init_ShelterA_1_304': 1892.0, 'init_ShelterA_1_305': 1895.0, 'init_ShelterA_1_308': 1898.0, 'init_ShelterA_1_315': 1901.0, 'newveh_ShelterA_1_288_55': 1908.0, 'newveh_ShelterA_2_268_48': 1908.0, 'init_ShelterA_2_343': 1910.0, 'init_ShelterA_2_344': 1913.0, 'newveh_ShelterA_2_269_49': 1914.0, 'newveh_ShelterA_2_270_50': 1923.0, 'init_ShelterA_1_348': 1929.0, 'newveh_ShelterA_2_340_103': 1931.0, 'init_ShelterA_1_352': 1936.0, 'newveh_ShelterA_2_323_102': 1940.0, 'init_ShelterA_1_361': 1941.0, 'init_ShelterA_1_362': 1947.0, 'newveh_ShelterA_2_336_104': 1951.0, 'newveh_ShelterA_1_309_61': 1952.0, 'init_ShelterA_1_318': 1953.0, 'init_ShelterA_1_319': 1955.0, 'init_ShelterA_1_366': 1959.0, 'newveh_ShelterA_2_271_51': 1964.0, 'init_ShelterA_1_367': 1966.0, 'init_ShelterA_1_368': 1970.0, 'init_ShelterA_1_369': 1974.0, 'newveh_ShelterA_2_273_53': 1974.0, 'newveh_ShelterA_2_272_52': 1983.0, 'newveh_ShelterA_2_274_54': 1994.0, 'init_ShelterA_1_320': 1997.0, 'init_ShelterA_1_321': 1999.0, 'init_ShelterA_1_370': 2000.0, 'init_ShelterA_1_371': 2007.0, 'newveh_ShelterA_2_287_56': 2008.0, 'init_ShelterA_1_372': 2012.0, 'init_ShelterA_1_373': 2017.0, 'newveh_ShelterA_2_365_114': 2017.0, 'init_ShelterA_1_380': 2026.0, 'newveh_ShelterA_2_363_113': 2026.0, 'init_ShelterA_1_341': 2028.0, 'init_ShelterA_1_383': 2031.0, 'init_ShelterA_1_387': 2035.0, 'newveh_ShelterA_2_358_112': 2038.0, 'init_ShelterA_1_342': 2040.0, 'newveh_ShelterA_2_289_57': 2050.0, 'newveh_ShelterA_2_293_59': 2055.0, 'newveh_ShelterA_2_290_58': 2059.0, 'init_ShelterA_1_392': 2090.0, 'newveh_ShelterA_1_335_74': 2110.0, 'newveh_ShelterA_2_306_62': 2110.0, 'newveh_ShelterA_1_338_76': 2115.0, 'newveh_ShelterA_2_307_63': 2116.0, 'newveh_ShelterA_2_311_64': 2120.0, 'newveh_ShelterA_1_350_80': 2124.0, 'newveh_ShelterA_1_329_70': 2129.0, 'newveh_ShelterA_2_312_65': 2130.0, 'newveh_ShelterA_2_314_66': 2153.0, 'init_ShelterA_1_375': 2155.0, 'init_ShelterA_1_376': 2158.0, 'init_ShelterA_1_379': 2160.0, 'init_ShelterA_1_381': 2161.0, 'init_ShelterA_1_386': 2163.0, 'init_ShelterA_1_388': 2166.0, 'init_ShelterA_1_389': 2180.0, 'newveh_ShelterA_1_359_92': 2182.0, 'init_ShelterA_1_390': 2185.0, 'init_ShelterA_1_391': 2187.0, 'newveh_ShelterA_1_364_93': 2190.0, 'newveh_ShelterA_1_382_99': 2199.0, 'newveh_ShelterA_1_385_101': 2205.0, 'newveh_ShelterA_2_337_73': 2205.0, 'newveh_ShelterA_1_384_100': 2209.0, 'newveh_ShelterA_2_333_69': 2223.0, 'newveh_ShelterA_2_356_85': 2230.0, 'newveh_ShelterA_2_339_75': 2236.0, 'newveh_ShelterA_2_355_84': 2244.0, 'newveh_ShelterA_2_354_83': 2248.0, 'newveh_ShelterA_2_353_82': 2253.0, 'newveh_ShelterA_2_330_72': 2264.0, 'newveh_ShelterA_2_325_71': 2303.0, 'newveh_ShelterA_2_345_81': 2310.0, 'newveh_ShelterA_2_357_86': 2315.0, 'newveh_ShelterA_2_360_91': 2321.0, 'newveh_ShelterA_2_351_90': 2327.0, 'newveh_ShelterA_2_349_89': 2333.0, 'newveh_ShelterA_2_347_88': 2340.0, 'newveh_ShelterA_2_346_87': 2348.0, 'newveh_ShelterA_2_377_97': 2353.0, 'newveh_ShelterA_2_374_96': 2361.0, 'newveh_ShelterA_2_378_98': 2365.0, 'newveh_ShelterA_2_393_105': 2370.0, 'newveh_ShelterA_2_399_111': 2378.0, 'newveh_ShelterA_2_398_110': 2382.0, 'newveh_ShelterA_2_397_109': 2387.0, 'newveh_ShelterA_2_396_108': 2402.0, 'newveh_ShelterA_2_395_107': 2408.0, 'newveh_ShelterA_2_394_106': 2412.0}
vehicle_abandant_time_by_pedestrianID_dict:{}
walking_distance_by_pedestrianID_dict:{}
route_change_time_by_vehID_dict:{'init_ShelterA_1_42': 370.0, 'init_ShelterA_1_46': 370.0, 'init_ShelterA_1_51': 370.0, 'init_ShelterA_2_49': 370.0, 'init_ShelterA_1_52': 380.0, 'init_ShelterA_1_55': 410.0, 'init_ShelterA_1_54': 420.0, 'init_ShelterA_1_58': 420.0, 'init_ShelterA_1_53': 430.0, 'init_ShelterA_1_56': 430.0, 'init_ShelterA_1_61': 430.0, 'init_ShelterA_2_69': 440.0, 'init_ShelterA_1_68': 450.0, 'init_ShelterA_1_70': 450.0, 'init_ShelterA_1_71': 460.0, 'init_ShelterA_1_65': 470.0, 'init_ShelterA_2_75': 480.0, 'init_ShelterA_1_73': 490.0, 'init_ShelterA_1_74': 510.0, 'init_ShelterA_2_89': 530.0, 'init_ShelterA_1_79': 550.0, 'init_ShelterA_1_80': 550.0, 'init_ShelterA_1_85': 550.0, 'init_ShelterA_1_86': 550.0, 'init_ShelterA_1_88': 550.0, 'init_ShelterA_1_83': 560.0, 'init_ShelterA_1_84': 560.0, 'init_ShelterA_1_90': 560.0, 'init_ShelterA_1_82': 570.0, 'init_ShelterA_1_87': 570.0, 'init_ShelterA_1_91': 580.0, 'init_ShelterA_2_95': 590.0, 'init_ShelterA_1_103': 600.0, 'init_ShelterA_1_98': 600.0, 'init_ShelterA_1_104': 610.0, 'init_ShelterA_1_97': 640.0, 'init_ShelterA_1_107': 650.0, 'init_ShelterA_1_105': 660.0, 'init_ShelterA_1_108': 680.0, 'init_ShelterA_1_109': 680.0, 'init_ShelterA_1_112': 680.0, 'init_ShelterA_1_113': 680.0, 'init_ShelterA_2_115': 680.0, 'init_ShelterA_1_106': 690.0, 'init_ShelterA_1_116': 690.0, 'init_ShelterA_1_118': 690.0, 'init_ShelterA_1_121': 690.0, 'init_ShelterA_2_114': 690.0, 'init_ShelterA_2_123': 700.0, 'init_ShelterA_1_117': 740.0, 'init_ShelterA_1_124': 740.0, 'init_ShelterA_1_111': 750.0, 'init_ShelterA_1_126': 750.0, 'init_ShelterA_1_129': 750.0, 'init_ShelterA_2_130': 750.0, 'init_ShelterA_1_120': 760.0, 'init_ShelterA_1_131': 760.0, 'init_ShelterA_1_133': 760.0, 'init_ShelterA_1_134': 760.0, 'init_ShelterA_1_119': 770.0, 'init_ShelterA_1_125': 770.0, 'init_ShelterA_1_132': 770.0, 'init_ShelterA_1_135': 770.0, 'init_ShelterA_1_137': 770.0, 'init_ShelterA_2_140': 770.0, 'init_ShelterA_1_142': 780.0, 'init_ShelterA_1_185': 810.0, 'init_ShelterA_1_186': 810.0, 'init_ShelterA_1_187': 810.0, 'init_ShelterA_1_188': 810.0, 'init_ShelterA_1_190': 810.0, 'init_ShelterA_1_191': 810.0, 'init_ShelterA_1_192': 810.0, 'init_ShelterA_1_193': 810.0, 'init_ShelterA_1_194': 810.0, 'init_ShelterA_1_195': 810.0, 'init_ShelterA_1_196': 810.0, 'init_ShelterA_1_197': 810.0, 'init_ShelterA_1_198': 810.0, 'init_ShelterA_1_199': 810.0, 'init_ShelterA_1_200': 810.0, 'init_ShelterA_1_201': 810.0, 'init_ShelterA_1_203': 810.0, 'init_ShelterA_1_205': 810.0, 'init_ShelterA_1_207': 810.0, 'init_ShelterA_1_208': 810.0, 'init_ShelterA_1_209': 810.0, 'init_ShelterA_1_210': 810.0, 'init_ShelterA_1_211': 810.0, 'init_ShelterA_1_212': 810.0, 'init_ShelterA_2_189': 810.0, 'init_ShelterA_2_202': 810.0, 'init_ShelterA_2_204': 810.0, 'init_ShelterA_2_206': 810.0, 'init_ShelterA_1_144': 840.0, 'init_ShelterA_2_146': 840.0, 'init_ShelterA_1_148': 860.0, 'init_ShelterA_1_149': 860.0, 'init_ShelterA_1_151': 860.0, 'init_ShelterA_1_147': 870.0, 'init_ShelterA_1_152': 870.0, 'init_ShelterA_1_153': 870.0, 'init_ShelterA_1_157': 870.0, 'init_ShelterA_1_158': 870.0, 'init_ShelterA_1_160': 870.0, 'init_ShelterA_2_159': 870.0, 'init_ShelterA_2_170': 940.0, 'init_ShelterA_1_166': 950.0, 'init_ShelterA_1_168': 950.0, 'init_ShelterA_1_171': 950.0, 'init_ShelterA_1_172': 950.0, 'init_ShelterA_1_173': 950.0, 'init_ShelterA_1_174': 950.0, 'init_ShelterA_1_176': 950.0, 'init_ShelterA_2_227': 950.0, 'init_ShelterA_1_164': 960.0, 'init_ShelterA_1_169': 960.0, 'init_ShelterA_1_231': 970.0, 'init_ShelterA_1_233': 970.0, 'init_ShelterA_1_234': 970.0, 'init_ShelterA_1_222': 980.0, 'init_ShelterA_1_226': 980.0, 'init_ShelterA_1_236': 980.0, 'init_ShelterA_1_237': 980.0, 'init_ShelterA_1_238': 980.0, 'init_ShelterA_1_223': 990.0, 'init_ShelterA_1_224': 990.0, 'init_ShelterA_1_228': 990.0, 'init_ShelterA_1_241': 990.0, 'init_ShelterA_1_242': 990.0, 'init_ShelterA_2_239': 990.0, 'init_ShelterA_1_179': 1010.0, 'init_ShelterA_2_180': 1010.0, 'init_ShelterA_2_213': 1010.0, 'init_ShelterA_1_181': 1020.0, 'init_ShelterA_1_183': 1020.0, 'init_ShelterA_1_184': 1020.0, 'init_ShelterA_1_178': 1030.0, 'init_ShelterA_1_256': 1060.0, 'init_ShelterA_1_255': 1070.0, 'init_ShelterA_1_258': 1070.0, 'init_ShelterA_1_264': 1070.0, 'init_ShelterA_1_217': 1090.0, 'init_ShelterA_2_266': 1100.0, 'init_ShelterA_1_268': 1140.0, 'init_ShelterA_1_269': 1140.0, 'init_ShelterA_1_270': 1140.0, 'init_ShelterA_1_271': 1150.0, 'init_ShelterA_1_272': 1150.0, 'init_ShelterA_1_273': 1150.0, 'init_ShelterA_1_274': 1150.0, 'init_ShelterA_2_288': 1220.0, 'init_ShelterA_1_287': 1230.0, 'init_ShelterA_1_289': 1230.0, 'init_ShelterA_1_290': 1230.0, 'init_ShelterA_1_293': 1230.0, 'init_ShelterA_1_252': 1250.0, 'init_ShelterA_2_309': 1300.0, 'init_ShelterA_1_306': 1320.0, 'init_ShelterA_1_307': 1320.0, 'init_ShelterA_1_311': 1320.0, 'init_ShelterA_1_312': 1320.0, 'init_ShelterA_1_314': 1320.0, 'init_ShelterA_1_267': 1350.0, 'init_ShelterA_1_244': 1360.0, 'init_ShelterA_1_245': 1360.0, 'init_ShelterA_1_246': 1360.0, 'init_ShelterA_1_247': 1360.0, 'init_ShelterA_1_249': 1360.0, 'init_ShelterA_1_251': 1360.0, 'init_ShelterA_1_253': 1360.0, 'init_ShelterA_1_254': 1360.0, 'init_ShelterA_1_276': 1360.0, 'init_ShelterA_1_243': 1370.0, 'init_ShelterA_1_294': 1390.0, 'init_ShelterA_1_333': 1400.0, 'init_ShelterA_2_329': 1400.0, 'init_ShelterA_1_325': 1410.0, 'init_ShelterA_1_330': 1410.0, 'init_ShelterA_1_337': 1410.0, 'init_ShelterA_2_335': 1410.0, 'init_ShelterA_1_339': 1420.0, 'init_ShelterA_2_338': 1420.0, 'init_ShelterA_1_286': 1430.0, 'init_ShelterA_1_291': 1430.0, 'init_ShelterA_1_284': 1440.0, 'init_ShelterA_1_297': 1440.0, 'init_ShelterA_1_265': 1450.0, 'init_ShelterA_1_295': 1450.0, 'init_ShelterA_1_301': 1470.0, 'init_ShelterA_1_302': 1470.0, 'init_ShelterA_1_303': 1470.0, 'init_ShelterA_2_350': 1470.0, 'init_ShelterA_1_281': 1480.0, 'init_ShelterA_1_283': 1480.0, 'init_ShelterA_1_285': 1480.0, 'init_ShelterA_1_308': 1480.0, 'init_ShelterA_1_345': 1480.0, 'init_ShelterA_1_353': 1480.0, 'init_ShelterA_1_354': 1480.0, 'init_ShelterA_1_355': 1480.0, 'init_ShelterA_1_356': 1480.0, 'init_ShelterA_1_357': 1480.0, 'init_ShelterA_1_278': 1490.0, 'init_ShelterA_1_279': 1490.0, 'init_ShelterA_1_282': 1490.0, 'init_ShelterA_1_319': 1490.0, 'init_ShelterA_1_346': 1490.0, 'init_ShelterA_1_347': 1490.0, 'init_ShelterA_1_349': 1490.0, 'init_ShelterA_1_351': 1490.0, 'init_ShelterA_1_360': 1490.0, 'init_ShelterA_2_359': 1490.0, 'init_ShelterA_2_364': 1500.0, 'init_ShelterA_1_299': 1510.0, 'init_ShelterA_1_300': 1510.0, 'init_ShelterA_1_304': 1510.0, 'init_ShelterA_1_305': 1510.0, 'init_ShelterA_1_296': 1520.0, 'init_ShelterA_1_298': 1520.0, 'init_ShelterA_1_310': 1520.0, 'init_ShelterA_1_317': 1520.0, 'init_ShelterA_1_374': 1580.0, 'init_ShelterA_1_377': 1580.0, 'init_ShelterA_1_378': 1580.0, 'init_ShelterA_2_382': 1580.0, 'init_ShelterA_2_384': 1580.0, 'init_ShelterA_2_385': 1580.0, 'init_ShelterA_1_320': 1610.0, 'init_ShelterA_1_321': 1610.0, 'init_ShelterA_1_323': 1610.0, 'init_ShelterA_1_340': 1610.0, 'init_ShelterA_1_336': 1620.0, 'init_ShelterA_1_342': 1640.0, 'init_ShelterA_1_393': 1640.0, 'init_ShelterA_1_394': 1640.0, 'init_ShelterA_1_395': 1640.0, 'init_ShelterA_1_396': 1640.0, 'init_ShelterA_1_397': 1640.0, 'init_ShelterA_1_398': 1640.0, 'init_ShelterA_1_399': 1640.0, 'init_ShelterA_1_318': 1650.0, 'init_ShelterA_1_315': 1660.0, 'init_ShelterA_2_343': 1680.0, 'init_ShelterA_2_344': 1680.0, 'init_ShelterA_1_358': 1700.0, 'init_ShelterA_1_363': 1700.0, 'init_ShelterA_1_365': 1700.0, 'init_ShelterA_1_341': 1740.0, 'init_ShelterA_1_375': 1740.0, 'init_ShelterA_1_391': 1870.0, 'init_ShelterA_1_388': 1880.0, 'init_ShelterA_1_381': 1910.0, 'init_ShelterA_1_389': 1910.0, 'init_ShelterA_1_376': 1920.0, 'init_ShelterA_1_379': 1920.0, 'init_ShelterA_1_386': 1920.0, 'init_ShelterA_1_390': 1920.0}
pedestrian_count:0
route_changed_vehicle_count:258
route_change_event_count:258
rate_vehicle_abandonment:0.00%
wrong_way_driving_count:0
vehicle_abandonment_count:0
normalcy_bias_route_change_count:159
majority_bias_route_change_count:99
lane_changed_vehicle_count:0
info_obtained_lanechange_count:0
elapsed_time_lanechange_count:0
majority_bias_lanechange_count:0

=== Job Result ===
end=2026-07-13T01:14:38+0900
elapsed_seconds=450
exit_code=0
status=SUCCESS
