=== Job Info ===
job_name=va_s2_e1.0_v1.0_r4
host=schubert
pid=106690
scenario=2
early_rate=1.0
v2v_rate=1.0
run_id=4
config=/home/katagi/vehicle-assistant-system/scenarios/JIP/configs/config_scenario_2.toml
output_dir=/home/katagi/vehicle-assistant-system/schubert_logs/va_s2_e1.0_v1.0_r4
start=2026-07-13T00:45:39+0900
python_version=Python 3.12.3
sumo_version=Eclipse SUMO sumo Version v1_23_1+0435-630512a

=== Command ===
cd /home/katagi/vehicle-assistant-system/schubert_logs/va_s2_e1.0_v1.0_r4
PYTHONPATH=/home/katagi/vehicle-assistant-system:/home/katagi/tmp/sumo/tools:/home/katagi/local/sumo/tools:/home/katagi/tmp/sumo/tools:/home/katagi/local/sumo/tools:/home/katagi/tmp/sumo/tools:/home/katagi/local/sumo/tools: python3 -W ignore::UserWarning -m scenarios.JIP.1-1-4.simulation.runner_simulator --nogui /home/katagi/vehicle-assistant-system/scenarios/JIP/configs/config_scenario_2.toml 1.0 1.0
simulation_pid=107172
Step #0.00 (0ms ?*RT. ?UPS, TraCI: 313ms, vehicles TOT 1 ACT 1 BUF 0)                     Step #100.00 (0ms ?*RT. ?UPS, TraCI: 18ms, vehicles TOT 26 ACT 26 BUF 0)                  Step #200.00 (0ms ?*RT. ?UPS, TraCI: 38ms, vehicles TOT 51 ACT 51 BUF 0)                  Step #300.00 (0ms ?*RT. ?UPS, TraCI: 480ms, vehicles TOT 77 ACT 77 BUF 0)                 Step #400.00 (0ms ?*RT. ?UPS, TraCI: 1464ms, vehicles TOT 104 ACT 104 BUF 0)              Step #500.00 (1ms ~= 1000.00*RT, ~131000.00UPS, TraCI: 1060ms, vehicles TOT 131 ACT 131 BUStep #600.00 (1ms ~= 1000.00*RT, ~158000.00UPS, TraCI: 865ms, vehicles TOT 158 ACT 158 BUFStep #700.00 (1ms ~= 1000.00*RT, ~186000.00UPS, TraCI: 758ms, vehicles TOT 186 ACT 186 BUFStep #800.00 (1ms ~= 1000.00*RT, ~210000.00UPS, TraCI: 816ms, vehicles TOT 210 ACT 210 BUFStep #900.00 (1ms ~= 1000.00*RT, ~214000.00UPS, TraCI: 1779ms, vehicles TOT 239 ACT 214 BUStep #1000.00 (1ms ~= 1000.00*RT, ~236000.00UPS, TraCI: 1956ms, vehicles TOT 269 ACT 236 BStep #1100.00 (1ms ~= 1000.00*RT, ~257000.00UPS, TraCI: 642ms, vehicles TOT 300 ACT 257 BUStep #1200.00 (1ms ~= 1000.00*RT, ~279000.00UPS, TraCI: 1568ms, vehicles TOT 338 ACT 279 BStep #1300.00 (1ms ~= 1000.00*RT, ~302000.00UPS, TraCI: 1662ms, vehicles TOT 373 ACT 302 BStep #1400.00 (1ms ~= 1000.00*RT, ~324000.00UPS, TraCI: 2273ms, vehicles TOT 399 ACT 324 BStep #1500.00 (1ms ~= 1000.00*RT, ~335000.00UPS, TraCI: 1176ms, vehicles TOT 436 ACT 335 BStep #1600.00 (1ms ~= 1000.00*RT, ~365000.00UPS, TraCI: 2419ms, vehicles TOT 470 ACT 365 BStep #1700.00 (1ms ~= 1000.00*RT, ~382000.00UPS, TraCI: 1316ms, vehicles TOT 501 ACT 382 BStep #1800.00 (0ms ?*RT. ?UPS, TraCI: 1747ms, vehicles TOT 520 ACT 400 BUF 0)             Step #1900.00 (1ms ~= 1000.00*RT, ~400000.00UPS, TraCI: 1091ms, vehicles TOT 520 ACT 400 BStep #2000.00 (1ms ~= 1000.00*RT, ~400000.00UPS, TraCI: 313ms, vehicles TOT 520 ACT 400 BUStep #2100.00 (0ms ?*RT. ?UPS, TraCI: 114ms, vehicles TOT 520 ACT 400 BUF 0)              Step #2200.00 (0ms ?*RT. ?UPS, TraCI: 103ms, vehicles TOT 520 ACT 400 BUF 0)              Step #2300.00 (1ms ~= 1000.00*RT, ~400000.00UPS, TraCI: 96ms, vehicles TOT 520 ACT 400 BUFStep #2400.00 (0ms ?*RT. ?UPS, TraCI: 83ms, vehicles TOT 520 ACT 400 BUF 0)               Step #2500.00 (0ms ?*RT. ?UPS, TraCI: 80ms, vehicles TOT 520 ACT 400 BUF 0)               Step #2600.00 (0ms ?*RT. ?UPS, TraCI: 80ms, vehicles TOT 520 ACT 400 BUF 0)               Step #2700.00 (0ms ?*RT. ?UPS, TraCI: 78ms, vehicles TOT 520 ACT 400 BUF 0)               Step #2800.00 (0ms ?*RT. ?UPS, TraCI: 79ms, vehicles TOT 520 ACT 400 BUF 0)               Step #2900.00 (1ms ~= 1000.00*RT, ~400000.00UPS, TraCI: 78ms, vehicles TOT 520 ACT 400 BUFStep #3000.00 (0ms ?*RT. ?UPS, TraCI: 78ms, vehicles TOT 520 ACT 400 BUF 0)               
 Retrying in 1 seconds
出現数: {'A1': 350, 'A2': 50}
割合:
  Total: 400
  A1: 350 (87.50%)
  A2: 50 (12.50%)
  B1: 0 (0.00%)
  B2: 0 (0.00%)
mean elapsed_time: 549.0825
OK all vehs arrived 
平均渋滞継続時間: 454.84秒
OK all vehicle abandonment were detected
266
134
===== Simlation Result Summary =====
avg_congestion_duration: 454.84 
arrival_time_by_vehID_dict:{'init_ShelterA_1_0': 208.0, 'init_ShelterA_1_3': 213.0, 'init_ShelterA_1_4': 222.0, 'init_ShelterA_1_5': 230.0, 'init_ShelterA_1_7': 235.0, 'init_ShelterA_1_9': 287.0, 'init_ShelterA_1_10': 293.0, 'init_ShelterA_2_1': 293.0, 'init_ShelterA_1_11': 299.0, 'init_ShelterA_1_12': 304.0, 'init_ShelterA_1_13': 310.0, 'init_ShelterA_1_15': 316.0, 'init_ShelterA_2_2': 321.0, 'init_ShelterA_1_16': 323.0, 'init_ShelterA_1_17': 330.0, 'init_ShelterA_2_6': 330.0, 'init_ShelterA_1_18': 338.0, 'init_ShelterA_1_19': 346.0, 'init_ShelterA_1_20': 355.0, 'init_ShelterA_1_21': 363.0, 'init_ShelterA_1_22': 369.0, 'init_ShelterA_1_23': 374.0, 'init_ShelterA_1_24': 379.0, 'init_ShelterA_2_8': 379.0, 'init_ShelterA_1_25': 386.0, 'init_ShelterA_1_26': 393.0, 'init_ShelterA_2_14': 396.0, 'init_ShelterA_1_27': 401.0, 'init_ShelterA_1_28': 410.0, 'init_ShelterA_1_29': 419.0, 'init_ShelterA_1_30': 428.0, 'init_ShelterA_1_31': 437.0, 'init_ShelterA_1_32': 447.0, 'init_ShelterA_1_34': 457.0, 'init_ShelterA_1_36': 467.0, 'init_ShelterA_1_37': 476.0, 'init_ShelterA_1_38': 486.0, 'init_ShelterA_1_39': 495.0, 'init_ShelterA_1_40': 505.0, 'init_ShelterA_1_41': 515.0, 'init_ShelterA_2_45': 517.0, 'init_ShelterA_2_33': 521.0, 'init_ShelterA_2_35': 526.0, 'init_ShelterA_1_47': 528.0, 'init_ShelterA_2_48': 530.0, 'init_ShelterA_1_51': 538.0, 'init_ShelterA_2_55': 541.0, 'init_ShelterA_1_56': 545.0, 'init_ShelterA_2_63': 548.0, 'init_ShelterA_2_71': 567.0, 'init_ShelterA_2_75': 575.0, 'init_ShelterA_1_42': 580.0, 'init_ShelterA_1_43': 582.0, 'init_ShelterA_1_44': 585.0, 'init_ShelterA_1_46': 588.0, 'init_ShelterA_1_49': 592.0, 'init_ShelterA_1_50': 595.0, 'init_ShelterA_1_52': 597.0, 'init_ShelterA_1_53': 600.0, 'init_ShelterA_1_54': 603.0, 'init_ShelterA_1_57': 606.0, 'init_ShelterA_1_58': 609.0, 'init_ShelterA_1_59': 640.0, 'init_ShelterA_1_76': 652.0, 'init_ShelterA_2_81': 654.0, 'init_ShelterA_1_60': 668.0, 'init_ShelterA_1_61': 669.0, 'init_ShelterA_2_90': 669.0, 'init_ShelterA_1_62': 673.0, 'init_ShelterA_1_64': 676.0, 'init_ShelterA_1_65': 679.0, 'init_ShelterA_1_66': 682.0, 'init_ShelterA_1_67': 684.0, 'init_ShelterA_1_91': 684.0, 'init_ShelterA_1_68': 688.0, 'init_ShelterA_1_69': 691.0, 'init_ShelterA_1_70': 693.0, 'init_ShelterA_1_72': 696.0, 'init_ShelterA_1_73': 699.0, 'init_ShelterA_1_74': 702.0, 'init_ShelterA_1_77': 727.0, 'init_ShelterA_1_93': 734.0, 'init_ShelterA_1_78': 735.0, 'init_ShelterA_1_79': 736.0, 'init_ShelterA_2_94': 736.0, 'init_ShelterA_1_95': 743.0, 'init_ShelterA_2_99': 748.0, 'init_ShelterA_1_80': 759.0, 'init_ShelterA_1_82': 761.0, 'init_ShelterA_1_100': 763.0, 'init_ShelterA_2_101': 765.0, 'init_ShelterA_2_107': 767.0, 'init_ShelterA_1_83': 777.0, 'init_ShelterA_1_84': 779.0, 'init_ShelterA_1_85': 781.0, 'init_ShelterA_1_86': 784.0, 'init_ShelterA_1_87': 786.0, 'init_ShelterA_1_88': 790.0, 'init_ShelterA_1_89': 793.0, 'init_ShelterA_1_109': 827.0, 'init_ShelterA_2_111': 829.0, 'init_ShelterA_1_112': 837.0, 'init_ShelterA_1_92': 841.0, 'init_ShelterA_1_113': 843.0, 'init_ShelterA_1_96': 843.0, 'init_ShelterA_1_97': 845.0, 'init_ShelterA_1_98': 848.0, 'init_ShelterA_1_115': 849.0, 'init_ShelterA_1_102': 851.0, 'init_ShelterA_2_117': 851.0, 'init_ShelterA_2_122': 853.0, 'init_ShelterA_1_103': 854.0, 'init_ShelterA_1_123': 865.0, 'init_ShelterA_1_104': 871.0, 'init_ShelterA_1_105': 872.0, 'init_ShelterA_1_106': 874.0, 'init_ShelterA_1_125': 913.0, 'init_ShelterA_1_126': 925.0, 'init_ShelterA_1_127': 931.0, 'init_ShelterA_1_108': 935.0, 'init_ShelterA_1_110': 937.0, 'init_ShelterA_1_128': 937.0, 'init_ShelterA_1_114': 939.0, 'init_ShelterA_1_116': 942.0, 'init_ShelterA_1_129': 943.0, 'init_ShelterA_1_130': 950.0, 'init_ShelterA_1_131': 957.0, 'init_ShelterA_1_118': 958.0, 'init_ShelterA_1_119': 960.0, 'init_ShelterA_1_120': 962.0, 'init_ShelterA_1_132': 963.0, 'init_ShelterA_1_121': 965.0, 'init_ShelterA_1_124': 967.0, 'init_ShelterA_1_134': 968.0, 'init_ShelterA_2_140': 970.0, 'init_ShelterA_1_133': 1002.0, 'init_ShelterA_1_143': 1006.0, 'init_ShelterA_1_135': 1013.0, 'init_ShelterA_1_144': 1014.0, 'init_ShelterA_1_136': 1015.0, 'init_ShelterA_1_146': 1019.0, 'init_ShelterA_1_147': 1024.0, 'init_ShelterA_1_148': 1034.0, 'init_ShelterA_1_150': 1042.0, 'init_ShelterA_1_137': 1044.0, 'init_ShelterA_2_152': 1045.0, 'init_ShelterA_1_138': 1046.0, 'init_ShelterA_2_154': 1047.0, 'init_ShelterA_1_139': 1048.0, 'init_ShelterA_2_157': 1049.0, 'init_ShelterA_1_141': 1050.0, 'init_ShelterA_1_142': 1085.0, 'init_ShelterA_1_145': 1097.0, 'init_ShelterA_1_161': 1097.0, 'init_ShelterA_2_162': 1099.0, 'init_ShelterA_1_149': 1106.0, 'init_ShelterA_1_167': 1113.0, 'init_ShelterA_1_151': 1124.0, 'init_ShelterA_1_170': 1127.0, 'init_ShelterA_1_172': 1132.0, 'init_ShelterA_1_173': 1137.0, 'init_ShelterA_1_153': 1146.0, 'init_ShelterA_1_155': 1148.0, 'init_ShelterA_1_156': 1150.0, 'init_ShelterA_1_158': 1152.0, 'init_ShelterA_1_159': 1184.0, 'init_ShelterA_1_160': 1192.0, 'init_ShelterA_1_163': 1195.0, 'init_ShelterA_1_164': 1197.0, 'init_ShelterA_1_165': 1199.0, 'init_ShelterA_1_181': 1199.0, 'init_ShelterA_1_166': 1201.0, 'init_ShelterA_1_168': 1204.0, 'init_ShelterA_1_169': 1207.0, 'init_ShelterA_1_182': 1207.0, 'init_ShelterA_1_183': 1213.0, 'init_ShelterA_1_212': 1218.0, 'init_ShelterA_2_214': 1220.0, 'init_ShelterA_2_216': 1222.0, 'init_ShelterA_1_171': 1248.0, 'init_ShelterA_1_174': 1250.0, 'init_ShelterA_1_175': 1252.0, 'init_ShelterA_1_176': 1268.0, 'init_ShelterA_1_177': 1269.0, 'init_ShelterA_1_178': 1300.0, 'init_ShelterA_1_179': 1302.0, 'init_ShelterA_1_180': 1304.0, 'init_ShelterA_1_184': 1306.0, 'init_ShelterA_1_185': 1308.0, 'init_ShelterA_1_210': 1311.0, 'newveh_ShelterA_2_186_0': 1330.0, 'init_ShelterA_1_213': 1332.0, 'init_ShelterA_1_215': 1334.0, 'init_ShelterA_1_217': 1362.0, 'newveh_ShelterA_1_204_23': 1380.0, 'newveh_ShelterA_2_187_1': 1382.0, 'newveh_ShelterA_1_211_24': 1386.0, 'init_ShelterA_1_218': 1390.0, 'newveh_ShelterA_2_188_2': 1391.0, 'init_ShelterA_2_220': 1392.0, 'newveh_ShelterA_2_189_3': 1396.0, 'init_ShelterA_1_227': 1401.0, 'newveh_ShelterA_2_190_4': 1414.0, 'newveh_ShelterA_2_192_6': 1421.0, 'newveh_ShelterA_2_191_5': 1427.0, 'newveh_ShelterA_2_193_7': 1433.0, 'newveh_ShelterA_2_194_8': 1440.0, 'newveh_ShelterA_2_195_9': 1447.0, 'newveh_ShelterA_2_196_10': 1454.0, 'init_ShelterA_1_231': 1455.0, 'init_ShelterA_2_240': 1457.0, 'newveh_ShelterA_2_197_11': 1463.0, 'newveh_ShelterA_2_198_12': 1471.0, 'init_ShelterA_1_241': 1474.0, 'newveh_ShelterA_2_199_13': 1479.0, 'init_ShelterA_1_244': 1480.0, 'init_ShelterA_1_245': 1484.0, 'newveh_ShelterA_2_200_14': 1487.0, 'init_ShelterA_1_254': 1494.0, 'newveh_ShelterA_2_201_15': 1496.0, 'newveh_ShelterA_2_202_16': 1505.0, 'newveh_ShelterA_2_206_19': 1514.0, 'newveh_ShelterA_2_205_18': 1523.0, 'newveh_ShelterA_2_203_17': 1533.0, 'newveh_ShelterA_2_207_20': 1543.0, 'newveh_ShelterA_2_208_21': 1552.0, 'init_ShelterA_1_265': 1557.0, 'newveh_ShelterA_1_235_30': 1562.0, 'newveh_ShelterA_1_233_29': 1566.0, 'newveh_ShelterA_2_209_22': 1574.0, 'init_ShelterA_1_219': 1576.0, 'newveh_ShelterA_1_256_33': 1577.0, 'init_ShelterA_1_223': 1578.0, 'init_ShelterA_1_224': 1581.0, 'init_ShelterA_1_228': 1583.0, 'init_ShelterA_1_273': 1583.0, 'init_ShelterA_1_229': 1585.0, 'init_ShelterA_1_276': 1587.0, 'newveh_ShelterA_2_255_68': 1604.0, 'init_ShelterA_1_230': 1606.0, 'init_ShelterA_1_232': 1608.0, 'init_ShelterA_1_234': 1611.0, 'init_ShelterA_1_237': 1613.0, 'init_ShelterA_1_238': 1615.0, 'init_ShelterA_1_242': 1618.0, 'init_ShelterA_1_243': 1620.0, 'init_ShelterA_1_246': 1623.0, 'init_ShelterA_1_248': 1626.0, 'init_ShelterA_1_251': 1629.0, 'init_ShelterA_1_253': 1632.0, 'init_ShelterA_1_261': 1635.0, 'init_ShelterA_1_278': 1636.0, 'init_ShelterA_1_262': 1638.0, 'init_ShelterA_1_282': 1643.0, 'init_ShelterA_1_286': 1648.0, 'init_ShelterA_1_288': 1652.0, 'newveh_ShelterA_1_263_42': 1662.0, 'newveh_ShelterA_2_226_25': 1662.0, 'init_ShelterA_1_264': 1665.0, 'init_ShelterA_1_266': 1667.0, 'init_ShelterA_1_267': 1669.0, 'init_ShelterA_1_290': 1669.0, 'init_ShelterA_2_294': 1671.0, 'init_ShelterA_1_296': 1676.0, 'newveh_ShelterA_2_221_26': 1677.0, 'newveh_ShelterA_2_239_32': 1682.0, 'newveh_ShelterA_2_236_31': 1686.0, 'newveh_ShelterA_2_225_28': 1693.0, 'newveh_ShelterA_2_222_27': 1697.0, 'newveh_ShelterA_2_303_83': 1717.0, 'init_ShelterA_1_301': 1725.0, 'init_ShelterA_1_302': 1732.0, 'newveh_ShelterA_1_268_43': 1737.0, 'newveh_ShelterA_2_291_82': 1739.0, 'init_ShelterA_1_307': 1743.0, 'newveh_ShelterA_2_247_34': 1746.0, 'init_ShelterA_1_309': 1750.0, 'newveh_ShelterA_2_260_38': 1752.0, 'init_ShelterA_1_310': 1754.0, 'newveh_ShelterA_2_259_37': 1757.0, 'newveh_ShelterA_1_281_48': 1758.0, 'newveh_ShelterA_2_258_36': 1763.0, 'newveh_ShelterA_2_257_35': 1770.0, 'newveh_ShelterA_2_249_39': 1777.0, 'newveh_ShelterA_2_252_41': 1786.0, 'newveh_ShelterA_2_250_40': 1792.0, 'init_ShelterA_1_293': 1794.0, 'newveh_ShelterA_2_308_84': 1799.0, 'newveh_ShelterA_1_283_56': 1823.0, 'init_ShelterA_1_320': 1837.0, 'init_ShelterA_1_324': 1845.0, 'init_ShelterA_1_325': 1849.0, 'init_ShelterA_1_311': 1852.0, 'init_ShelterA_1_327': 1853.0, 'init_ShelterA_1_312': 1854.0, 'init_ShelterA_1_313': 1856.0, 'init_ShelterA_1_314': 1858.0, 'newveh_ShelterA_2_280_47': 1876.0, 'newveh_ShelterA_2_279_46': 1885.0, 'newveh_ShelterA_2_275_45': 1890.0, 'newveh_ShelterA_2_274_44': 1895.0, 'init_ShelterA_1_335': 1900.0, 'newveh_ShelterA_2_284_54': 1900.0, 'newveh_ShelterA_2_321_103': 1906.0, 'init_ShelterA_1_336': 1908.0, 'newveh_ShelterA_2_330_106': 1912.0, 'newveh_ShelterA_1_297_60': 1915.0, 'newveh_ShelterA_2_323_105': 1918.0, 'newveh_ShelterA_1_292_59': 1920.0, 'init_ShelterA_1_342': 1924.0, 'newveh_ShelterA_2_334_108': 1924.0, 'newveh_ShelterA_2_332_107': 1931.0, 'newveh_ShelterA_2_269_49': 1939.0, 'newveh_ShelterA_2_271_51': 1948.0, 'newveh_ShelterA_2_270_50': 1956.0, 'newveh_ShelterA_2_272_52': 1966.0, 'newveh_ShelterA_2_277_53': 1974.0, 'newveh_ShelterA_2_285_55': 1982.0, 'newveh_ShelterA_2_287_57': 1991.0, 'newveh_ShelterA_1_315_70': 1999.0, 'init_ShelterA_1_365': 2004.0, 'init_ShelterA_1_369': 2009.0, 'newveh_ShelterA_2_289_58': 2013.0, 'init_ShelterA_1_322': 2015.0, 'init_ShelterA_1_328': 2017.0, 'init_ShelterA_1_329': 2019.0, 'init_ShelterA_1_333': 2021.0, 'init_ShelterA_1_375': 2021.0, 'newveh_ShelterA_2_368_118': 2031.0, 'newveh_ShelterA_2_366_117': 2046.0, 'init_ShelterA_1_337': 2048.0, 'init_ShelterA_1_345': 2050.0, 'init_ShelterA_1_346': 2052.0, 'init_ShelterA_1_347': 2054.0, 'newveh_ShelterA_2_298_62': 2062.0, 'newveh_ShelterA_2_295_61': 2066.0, 'newveh_ShelterA_2_306_67': 2071.0, 'newveh_ShelterA_2_305_66': 2078.0, 'newveh_ShelterA_2_304_65': 2087.0, 'newveh_ShelterA_2_299_63': 2095.0, 'newveh_ShelterA_2_300_64': 2101.0, 'newveh_ShelterA_1_326_74': 2108.0, 'newveh_ShelterA_2_318_69': 2108.0, 'newveh_ShelterA_2_384_119': 2113.0, 'init_ShelterA_1_367': 2115.0, 'init_ShelterA_1_370': 2120.0, 'init_ShelterA_1_371': 2122.0, 'init_ShelterA_1_372': 2124.0, 'init_ShelterA_1_373': 2126.0, 'newveh_ShelterA_2_316_71': 2144.0, 'newveh_ShelterA_2_317_72': 2154.0, 'newveh_ShelterA_2_319_73': 2174.0, 'init_ShelterA_1_374': 2176.0, 'init_ShelterA_1_376': 2178.0, 'init_ShelterA_1_377': 2180.0, 'init_ShelterA_1_378': 2182.0, 'init_ShelterA_1_379': 2184.0, 'init_ShelterA_1_380': 2186.0, 'init_ShelterA_1_381': 2188.0, 'init_ShelterA_1_382': 2190.0, 'init_ShelterA_1_385': 2193.0, 'init_ShelterA_1_386': 2196.0, 'init_ShelterA_1_388': 2199.0, 'init_ShelterA_1_389': 2202.0, 'init_ShelterA_1_390': 2205.0, 'newveh_ShelterA_1_361_99': 2206.0, 'init_ShelterA_1_391': 2208.0, 'newveh_ShelterA_1_356_96': 2211.0, 'newveh_ShelterA_1_363_100': 2216.0, 'newveh_ShelterA_2_341_79': 2236.0, 'newveh_ShelterA_2_343_80': 2243.0, 'newveh_ShelterA_2_340_78': 2249.0, 'newveh_ShelterA_2_339_77': 2257.0, 'newveh_ShelterA_2_338_76': 2261.0, 'newveh_ShelterA_2_344_81': 2266.0, 'newveh_ShelterA_1_387_104': 2267.0, 'newveh_ShelterA_1_383_102': 2272.0, 'newveh_ShelterA_2_331_75': 2273.0, 'newveh_ShelterA_2_351_88': 2281.0, 'newveh_ShelterA_2_350_87': 2287.0, 'newveh_ShelterA_2_349_86': 2293.0, 'newveh_ShelterA_2_348_85': 2298.0, 'newveh_ShelterA_2_353_90': 2304.0, 'newveh_ShelterA_2_352_89': 2310.0, 'newveh_ShelterA_2_355_92': 2316.0, 'newveh_ShelterA_2_354_91': 2323.0, 'newveh_ShelterA_2_357_93': 2329.0, 'newveh_ShelterA_2_359_95': 2337.0, 'newveh_ShelterA_2_358_94': 2345.0, 'newveh_ShelterA_2_362_98': 2349.0, 'newveh_ShelterA_2_360_97': 2353.0, 'newveh_ShelterA_2_364_101': 2368.0, 'newveh_ShelterA_2_392_109': 2379.0, 'newveh_ShelterA_2_397_114': 2388.0, 'newveh_ShelterA_2_396_113': 2393.0, 'newveh_ShelterA_2_395_112': 2398.0, 'newveh_ShelterA_2_394_111': 2403.0, 'newveh_ShelterA_2_393_110': 2411.0, 'newveh_ShelterA_2_398_115': 2416.0, 'newveh_ShelterA_2_399_116': 2420.0}
vehicle_abandant_time_by_pedestrianID_dict:{}
walking_distance_by_pedestrianID_dict:{}
route_change_time_by_vehID_dict:{'init_ShelterA_2_48': 360.0, 'init_ShelterA_1_42': 370.0, 'init_ShelterA_1_44': 370.0, 'init_ShelterA_1_52': 370.0, 'init_ShelterA_1_53': 370.0, 'init_ShelterA_2_45': 370.0, 'init_ShelterA_1_43': 380.0, 'init_ShelterA_1_46': 380.0, 'init_ShelterA_1_50': 380.0, 'init_ShelterA_1_49': 390.0, 'init_ShelterA_2_55': 400.0, 'init_ShelterA_1_54': 410.0, 'init_ShelterA_1_57': 420.0, 'init_ShelterA_1_58': 420.0, 'init_ShelterA_2_63': 440.0, 'init_ShelterA_2_71': 440.0, 'init_ShelterA_1_60': 450.0, 'init_ShelterA_1_59': 460.0, 'init_ShelterA_1_61': 460.0, 'init_ShelterA_1_62': 460.0, 'init_ShelterA_1_64': 460.0, 'init_ShelterA_1_65': 460.0, 'init_ShelterA_1_67': 460.0, 'init_ShelterA_1_69': 460.0, 'init_ShelterA_1_70': 460.0, 'init_ShelterA_1_66': 470.0, 'init_ShelterA_1_72': 490.0, 'init_ShelterA_1_73': 490.0, 'init_ShelterA_1_74': 490.0, 'init_ShelterA_2_75': 490.0, 'init_ShelterA_1_68': 500.0, 'init_ShelterA_1_77': 510.0, 'init_ShelterA_1_79': 510.0, 'init_ShelterA_2_81': 510.0, 'init_ShelterA_1_80': 520.0, 'init_ShelterA_1_78': 550.0, 'init_ShelterA_1_82': 550.0, 'init_ShelterA_1_83': 550.0, 'init_ShelterA_1_84': 550.0, 'init_ShelterA_1_85': 550.0, 'init_ShelterA_1_86': 550.0, 'init_ShelterA_1_87': 550.0, 'init_ShelterA_1_88': 550.0, 'init_ShelterA_1_89': 550.0, 'init_ShelterA_2_90': 580.0, 'init_ShelterA_1_92': 590.0, 'init_ShelterA_2_94': 600.0, 'init_ShelterA_2_99': 600.0, 'init_ShelterA_1_103': 610.0, 'init_ShelterA_1_104': 610.0, 'init_ShelterA_1_97': 610.0, 'init_ShelterA_1_98': 610.0, 'init_ShelterA_2_101': 610.0, 'init_ShelterA_2_107': 610.0, 'init_ShelterA_1_102': 620.0, 'init_ShelterA_1_105': 620.0, 'init_ShelterA_1_96': 620.0, 'init_ShelterA_1_106': 650.0, 'init_ShelterA_1_108': 670.0, 'init_ShelterA_1_110': 670.0, 'init_ShelterA_2_111': 670.0, 'init_ShelterA_2_122': 670.0, 'init_ShelterA_1_114': 680.0, 'init_ShelterA_2_117': 680.0, 'init_ShelterA_1_116': 690.0, 'init_ShelterA_1_119': 690.0, 'init_ShelterA_1_120': 690.0, 'init_ShelterA_1_118': 700.0, 'init_ShelterA_1_124': 700.0, 'init_ShelterA_1_121': 710.0, 'init_ShelterA_1_133': 770.0, 'init_ShelterA_1_136': 770.0, 'init_ShelterA_1_137': 770.0, 'init_ShelterA_1_138': 770.0, 'init_ShelterA_1_135': 780.0, 'init_ShelterA_1_139': 780.0, 'init_ShelterA_1_141': 780.0, 'init_ShelterA_1_142': 780.0, 'init_ShelterA_2_140': 780.0, 'init_ShelterA_1_186': 810.0, 'init_ShelterA_1_187': 810.0, 'init_ShelterA_1_188': 810.0, 'init_ShelterA_1_189': 810.0, 'init_ShelterA_1_190': 810.0, 'init_ShelterA_1_191': 810.0, 'init_ShelterA_1_192': 810.0, 'init_ShelterA_1_193': 810.0, 'init_ShelterA_1_194': 810.0, 'init_ShelterA_1_195': 810.0, 'init_ShelterA_1_196': 810.0, 'init_ShelterA_1_197': 810.0, 'init_ShelterA_1_198': 810.0, 'init_ShelterA_1_199': 810.0, 'init_ShelterA_1_200': 810.0, 'init_ShelterA_1_201': 810.0, 'init_ShelterA_1_202': 810.0, 'init_ShelterA_1_203': 810.0, 'init_ShelterA_1_205': 810.0, 'init_ShelterA_1_206': 810.0, 'init_ShelterA_1_207': 810.0, 'init_ShelterA_1_208': 810.0, 'init_ShelterA_1_209': 810.0, 'init_ShelterA_2_154': 810.0, 'init_ShelterA_2_204': 810.0, 'init_ShelterA_2_211': 810.0, 'init_ShelterA_1_145': 830.0, 'init_ShelterA_1_149': 850.0, 'init_ShelterA_1_151': 850.0, 'init_ShelterA_2_152': 850.0, 'init_ShelterA_2_157': 860.0, 'init_ShelterA_1_155': 870.0, 'init_ShelterA_1_156': 870.0, 'init_ShelterA_1_158': 870.0, 'init_ShelterA_1_159': 870.0, 'init_ShelterA_1_160': 870.0, 'init_ShelterA_1_153': 880.0, 'init_ShelterA_1_164': 920.0, 'init_ShelterA_1_165': 920.0, 'init_ShelterA_2_162': 920.0, 'init_ShelterA_1_166': 930.0, 'init_ShelterA_1_168': 930.0, 'init_ShelterA_1_169': 930.0, 'init_ShelterA_1_163': 940.0, 'init_ShelterA_1_174': 950.0, 'init_ShelterA_1_175': 950.0, 'init_ShelterA_1_171': 960.0, 'init_ShelterA_1_177': 960.0, 'init_ShelterA_1_178': 960.0, 'init_ShelterA_1_226': 970.0, 'init_ShelterA_1_221': 980.0, 'init_ShelterA_1_222': 980.0, 'init_ShelterA_1_225': 980.0, 'init_ShelterA_2_233': 980.0, 'init_ShelterA_2_235': 980.0, 'init_ShelterA_1_179': 990.0, 'init_ShelterA_1_236': 990.0, 'init_ShelterA_1_239': 990.0, 'init_ShelterA_1_185': 1010.0, 'init_ShelterA_1_176': 1020.0, 'init_ShelterA_1_180': 1020.0, 'init_ShelterA_1_184': 1020.0, 'init_ShelterA_1_210': 1030.0, 'init_ShelterA_2_214': 1030.0, 'init_ShelterA_2_216': 1030.0, 'init_ShelterA_1_217': 1040.0, 'init_ShelterA_2_256': 1040.0, 'init_ShelterA_1_247': 1050.0, 'init_ShelterA_1_257': 1050.0, 'init_ShelterA_1_258': 1050.0, 'init_ShelterA_1_259': 1050.0, 'init_ShelterA_1_260': 1050.0, 'init_ShelterA_1_249': 1060.0, 'init_ShelterA_1_250': 1060.0, 'init_ShelterA_1_252': 1060.0, 'init_ShelterA_2_263': 1060.0, 'init_ShelterA_1_215': 1100.0, 'init_ShelterA_1_213': 1110.0, 'init_ShelterA_2_268': 1110.0, 'init_ShelterA_1_274': 1140.0, 'init_ShelterA_1_275': 1140.0, 'init_ShelterA_1_279': 1140.0, 'init_ShelterA_1_280': 1140.0, 'init_ShelterA_2_281': 1140.0, 'init_ShelterA_1_269': 1150.0, 'init_ShelterA_1_270': 1150.0, 'init_ShelterA_1_271': 1150.0, 'init_ShelterA_1_272': 1150.0, 'init_ShelterA_1_277': 1150.0, 'init_ShelterA_1_284': 1150.0, 'init_ShelterA_1_285': 1150.0, 'init_ShelterA_2_283': 1150.0, 'init_ShelterA_1_287': 1160.0, 'init_ShelterA_2_220': 1170.0, 'init_ShelterA_1_289': 1180.0, 'init_ShelterA_2_240': 1190.0, 'init_ShelterA_1_219': 1200.0, 'init_ShelterA_1_223': 1200.0, 'init_ShelterA_1_224': 1200.0, 'init_ShelterA_2_294': 1200.0, 'init_ShelterA_1_228': 1210.0, 'init_ShelterA_1_230': 1210.0, 'init_ShelterA_1_293': 1210.0, 'init_ShelterA_1_232': 1220.0, 'init_ShelterA_1_238': 1220.0, 'init_ShelterA_2_292': 1220.0, 'init_ShelterA_2_297': 1220.0, 'init_ShelterA_1_295': 1240.0, 'init_ShelterA_1_298': 1240.0, 'init_ShelterA_1_299': 1240.0, 'init_ShelterA_1_300': 1240.0, 'init_ShelterA_1_304': 1240.0, 'init_ShelterA_1_305': 1240.0, 'init_ShelterA_1_306': 1240.0, 'init_ShelterA_1_243': 1250.0, 'init_ShelterA_1_246': 1260.0, 'init_ShelterA_1_248': 1260.0, 'init_ShelterA_1_251': 1260.0, 'init_ShelterA_1_253': 1260.0, 'init_ShelterA_1_255': 1270.0, 'init_ShelterA_1_229': 1280.0, 'init_ShelterA_1_318': 1290.0, 'init_ShelterA_2_315': 1290.0, 'init_ShelterA_1_242': 1300.0, 'init_ShelterA_1_234': 1310.0, 'init_ShelterA_1_237': 1310.0, 'init_ShelterA_1_262': 1310.0, 'init_ShelterA_1_264': 1310.0, 'init_ShelterA_1_266': 1310.0, 'init_ShelterA_1_267': 1310.0, 'init_ShelterA_1_316': 1320.0, 'init_ShelterA_1_317': 1320.0, 'init_ShelterA_1_319': 1320.0, 'init_ShelterA_1_261': 1380.0, 'init_ShelterA_2_326': 1400.0, 'init_ShelterA_1_331': 1410.0, 'init_ShelterA_1_338': 1410.0, 'init_ShelterA_1_339': 1410.0, 'init_ShelterA_1_340': 1410.0, 'init_ShelterA_1_341': 1410.0, 'init_ShelterA_1_343': 1420.0, 'init_ShelterA_1_344': 1420.0, 'init_ShelterA_1_291': 1430.0, 'init_ShelterA_1_303': 1430.0, 'init_ShelterA_1_308': 1440.0, 'init_ShelterA_1_348': 1460.0, 'init_ShelterA_1_349': 1460.0, 'init_ShelterA_1_350': 1460.0, 'init_ShelterA_1_351': 1460.0, 'init_ShelterA_1_313': 1470.0, 'init_ShelterA_1_314': 1470.0, 'init_ShelterA_1_352': 1470.0, 'init_ShelterA_1_353': 1470.0, 'init_ShelterA_1_354': 1470.0, 'init_ShelterA_1_355': 1470.0, 'init_ShelterA_1_357': 1480.0, 'init_ShelterA_1_358': 1480.0, 'init_ShelterA_1_359': 1480.0, 'init_ShelterA_2_356': 1480.0, 'init_ShelterA_1_360': 1490.0, 'init_ShelterA_1_362': 1490.0, 'init_ShelterA_2_361': 1490.0, 'init_ShelterA_2_363': 1490.0, 'init_ShelterA_1_311': 1510.0, 'init_ShelterA_1_312': 1510.0, 'init_ShelterA_1_364': 1510.0, 'init_ShelterA_2_383': 1580.0, 'init_ShelterA_1_321': 1590.0, 'init_ShelterA_2_387': 1590.0, 'init_ShelterA_1_322': 1600.0, 'init_ShelterA_1_323': 1610.0, 'init_ShelterA_1_330': 1610.0, 'init_ShelterA_1_337': 1610.0, 'init_ShelterA_1_332': 1620.0, 'init_ShelterA_1_334': 1620.0, 'init_ShelterA_1_345': 1640.0, 'init_ShelterA_1_346': 1640.0, 'init_ShelterA_1_347': 1640.0, 'init_ShelterA_1_392': 1640.0, 'init_ShelterA_1_393': 1640.0, 'init_ShelterA_1_394': 1640.0, 'init_ShelterA_1_395': 1640.0, 'init_ShelterA_1_396': 1640.0, 'init_ShelterA_1_367': 1650.0, 'init_ShelterA_1_397': 1650.0, 'init_ShelterA_1_398': 1650.0, 'init_ShelterA_1_399': 1650.0, 'init_ShelterA_1_366': 1700.0, 'init_ShelterA_1_368': 1700.0, 'init_ShelterA_1_328': 1720.0, 'init_ShelterA_1_329': 1730.0, 'init_ShelterA_1_333': 1730.0, 'init_ShelterA_1_381': 1740.0, 'init_ShelterA_1_382': 1740.0, 'init_ShelterA_1_379': 1750.0, 'init_ShelterA_1_371': 1780.0, 'init_ShelterA_1_384': 1790.0, 'init_ShelterA_1_389': 1860.0, 'init_ShelterA_1_391': 1860.0, 'init_ShelterA_1_385': 1870.0, 'init_ShelterA_1_388': 1870.0, 'init_ShelterA_1_390': 1870.0, 'init_ShelterA_1_377': 1880.0, 'init_ShelterA_1_378': 1880.0, 'init_ShelterA_1_386': 1880.0, 'init_ShelterA_1_372': 1900.0, 'init_ShelterA_1_373': 1900.0, 'init_ShelterA_1_374': 1900.0, 'init_ShelterA_1_376': 1900.0, 'init_ShelterA_1_370': 1910.0, 'init_ShelterA_1_380': 1910.0}
pedestrian_count:0
route_changed_vehicle_count:290
route_change_event_count:290
rate_vehicle_abandonment:0.00%
wrong_way_driving_count:0
vehicle_abandonment_count:0
normalcy_bias_route_change_count:201
majority_bias_route_change_count:89
lane_changed_vehicle_count:0
info_obtained_lanechange_count:0
elapsed_time_lanechange_count:0
majority_bias_lanechange_count:0

=== Job Result ===
end=2026-07-13T00:52:25+0900
elapsed_seconds=406
exit_code=0
status=SUCCESS
