=== Job Info ===
job_name=va_s8_e1.0_v1.0_r25
host=schubert
pid=125611
scenario=8
early_rate=1.0
v2v_rate=1.0
run_id=25
config=/home/katagi/vehicle-assistant-system/scenarios/JIP/configs/config_scenario_8.toml
output_dir=/home/katagi/vehicle-assistant-system/schubert_logs/va_s8_e1.0_v1.0_r25
start=2026-07-13T02:21:00+0900
python_version=Python 3.12.3
sumo_version=Eclipse SUMO sumo Version v1_23_1+0435-630512a

=== Command ===
cd /home/katagi/vehicle-assistant-system/schubert_logs/va_s8_e1.0_v1.0_r25
PYTHONPATH=/home/katagi/vehicle-assistant-system:/home/katagi/tmp/sumo/tools:/home/katagi/local/sumo/tools:/home/katagi/tmp/sumo/tools:/home/katagi/local/sumo/tools:/home/katagi/tmp/sumo/tools:/home/katagi/local/sumo/tools: python3 -W ignore::UserWarning -m scenarios.JIP.1-1-4.simulation.runner_simulator --nogui /home/katagi/vehicle-assistant-system/scenarios/JIP/configs/config_scenario_8.toml 1.0 1.0
simulation_pid=125631
Step #0.00 (0ms ?*RT. ?UPS, TraCI: 334ms, vehicles TOT 1 ACT 1 BUF 0)                     Step #100.00 (1ms ~= 1000.00*RT, ~26000.00UPS, TraCI: 17ms, vehicles TOT 26 ACT 26 BUF 0) Step #200.00 (1ms ~= 1000.00*RT, ~51000.00UPS, TraCI: 36ms, vehicles TOT 51 ACT 51 BUF 0) Step #300.00 (1ms ~= 1000.00*RT, ~77000.00UPS, TraCI: 55ms, vehicles TOT 77 ACT 77 BUF 0) Step #400.00 (0ms ?*RT. ?UPS, TraCI: 1596ms, vehicles TOT 105 ACT 104 BUF 0)              Step #500.00 (1ms ~= 1000.00*RT, ~131000.00UPS, TraCI: 1494ms, vehicles TOT 132 ACT 131 BUStep #600.00 (0ms ?*RT. ?UPS, TraCI: 862ms, vehicles TOT 159 ACT 158 BUF 0)               Step #700.00 (0ms ?*RT. ?UPS, TraCI: 579ms, vehicles TOT 187 ACT 186 BUF 0)               Step #800.00 (1ms ~= 1000.00*RT, ~191000.00UPS, TraCI: 1221ms, vehicles TOT 215 ACT 191 BUStep #900.00 (1ms ~= 1000.00*RT, ~213000.00UPS, TraCI: 1991ms, vehicles TOT 240 ACT 213 BUStep #1000.00 (0ms ?*RT. ?UPS, TraCI: 1325ms, vehicles TOT 269 ACT 234 BUF 40)            Step #1100.00 (1ms ~= 1000.00*RT, ~255000.00UPS, TraCI: 1306ms, vehicles TOT 297 ACT 255 BStep #1200.00 (1ms ~= 1000.00*RT, ~281000.00UPS, TraCI: 1501ms, vehicles TOT 334 ACT 281 BStep #1300.00 (1ms ~= 1000.00*RT, ~300000.00UPS, TraCI: 1822ms, vehicles TOT 365 ACT 300 BStep #1400.00 (1ms ~= 1000.00*RT, ~319000.00UPS, TraCI: 2484ms, vehicles TOT 391 ACT 319 BStep #1500.00 (1ms ~= 1000.00*RT, ~337000.00UPS, TraCI: 2337ms, vehicles TOT 429 ACT 337 BStep #1600.00 (1ms ~= 1000.00*RT, ~367000.00UPS, TraCI: 3073ms, vehicles TOT 468 ACT 367 BStep #1700.00 (1ms ~= 1000.00*RT, ~383000.00UPS, TraCI: 1786ms, vehicles TOT 500 ACT 383 BStep #1800.00 (1ms ~= 1000.00*RT, ~400000.00UPS, TraCI: 1937ms, vehicles TOT 517 ACT 400 BStep #1900.00 (0ms ?*RT. ?UPS, TraCI: 1283ms, vehicles TOT 517 ACT 400 BUF 0)             Step #2000.00 (1ms ~= 1000.00*RT, ~400000.00UPS, TraCI: 838ms, vehicles TOT 517 ACT 400 BUStep #2100.00 (0ms ?*RT. ?UPS, TraCI: 415ms, vehicles TOT 517 ACT 400 BUF 0)              Step #2200.00 (1ms ~= 1000.00*RT, ~400000.00UPS, TraCI: 96ms, vehicles TOT 517 ACT 400 BUFStep #2300.00 (1ms ~= 1000.00*RT, ~400000.00UPS, TraCI: 95ms, vehicles TOT 517 ACT 400 BUFStep #2400.00 (0ms ?*RT. ?UPS, TraCI: 86ms, vehicles TOT 517 ACT 400 BUF 0)               Step #2500.00 (0ms ?*RT. ?UPS, TraCI: 78ms, vehicles TOT 517 ACT 400 BUF 0)               Step #2600.00 (0ms ?*RT. ?UPS, TraCI: 78ms, vehicles TOT 517 ACT 400 BUF 0)               Step #2700.00 (0ms ?*RT. ?UPS, TraCI: 78ms, vehicles TOT 517 ACT 400 BUF 0)               Step #2800.00 (0ms ?*RT. ?UPS, TraCI: 78ms, vehicles TOT 517 ACT 400 BUF 0)               Step #2900.00 (1ms ~= 1000.00*RT, ~400000.00UPS, TraCI: 78ms, vehicles TOT 517 ACT 400 BUFStep #3000.00 (0ms ?*RT. ?UPS, TraCI: 80ms, vehicles TOT 517 ACT 400 BUF 0)               
 Retrying in 1 seconds
出現数: {'A1': 365, 'A2': 35}
割合:
  Total: 400
  A1: 365 (91.25%)
  A2: 35 (8.75%)
  B1: 0 (0.00%)
  B2: 0 (0.00%)
mean elapsed_time: 540.0125
OK all vehs arrived 
平均渋滞継続時間: 462.52秒
OK all vehicle abandonment were detected
274
126
===== Simlation Result Summary =====
avg_congestion_duration: 462.52 
arrival_time_by_vehID_dict:{'init_ShelterA_1_0': 216.0, 'init_ShelterA_1_1': 227.0, 'init_ShelterA_1_2': 233.0, 'init_ShelterA_1_3': 240.0, 'init_ShelterA_1_4': 245.0, 'init_ShelterA_1_5': 249.0, 'init_ShelterA_1_7': 282.0, 'init_ShelterA_1_8': 290.0, 'init_ShelterA_1_9': 296.0, 'init_ShelterA_1_10': 301.0, 'init_ShelterA_1_11': 307.0, 'init_ShelterA_1_12': 314.0, 'init_ShelterA_1_13': 321.0, 'init_ShelterA_1_14': 329.0, 'init_ShelterA_1_15': 338.0, 'init_ShelterA_2_6': 342.0, 'init_ShelterA_1_17': 347.0, 'init_ShelterA_1_18': 356.0, 'init_ShelterA_1_19': 365.0, 'init_ShelterA_1_20': 375.0, 'init_ShelterA_1_21': 384.0, 'init_ShelterA_1_22': 393.0, 'init_ShelterA_2_16': 393.0, 'init_ShelterA_1_23': 402.0, 'init_ShelterA_1_24': 412.0, 'init_ShelterA_1_25': 421.0, 'init_ShelterA_1_26': 431.0, 'init_ShelterA_1_27': 440.0, 'init_ShelterA_1_28': 450.0, 'init_ShelterA_1_29': 460.0, 'init_ShelterA_1_30': 470.0, 'init_ShelterA_1_31': 479.0, 'init_ShelterA_1_32': 489.0, 'init_ShelterA_1_34': 499.0, 'init_ShelterA_1_35': 508.0, 'init_ShelterA_1_36': 518.0, 'init_ShelterA_1_37': 527.0, 'init_ShelterA_1_38': 537.0, 'init_ShelterA_1_39': 546.0, 'init_ShelterA_1_40': 556.0, 'init_ShelterA_1_42': 565.0, 'init_ShelterA_1_41': 566.0, 'init_ShelterA_1_43': 568.0, 'init_ShelterA_2_44': 568.0, 'init_ShelterA_1_45': 572.0, 'init_ShelterA_1_46': 578.0, 'init_ShelterA_1_47': 584.0, 'init_ShelterA_1_48': 587.0, 'init_ShelterA_1_49': 587.0, 'init_ShelterA_1_50': 597.0, 'init_ShelterA_1_51': 605.0, 'init_ShelterA_1_52': 607.0, 'init_ShelterA_1_56': 607.0, 'init_ShelterA_1_53': 610.0, 'init_ShelterA_1_54': 613.0, 'init_ShelterA_1_55': 616.0, 'newveh_ShelterA_1_33_0': 617.0, 'init_ShelterA_1_57': 619.0, 'init_ShelterA_2_58': 619.0, 'init_ShelterA_2_64': 621.0, 'init_ShelterA_1_67': 629.0, 'init_ShelterA_1_59': 632.0, 'init_ShelterA_1_60': 634.0, 'init_ShelterA_1_71': 634.0, 'init_ShelterA_1_74': 638.0, 'init_ShelterA_1_61': 640.0, 'init_ShelterA_2_80': 641.0, 'init_ShelterA_1_62': 652.0, 'init_ShelterA_1_63': 654.0, 'init_ShelterA_1_65': 657.0, 'init_ShelterA_1_66': 664.0, 'init_ShelterA_1_68': 666.0, 'init_ShelterA_1_69': 675.0, 'init_ShelterA_1_70': 678.0, 'init_ShelterA_1_72': 681.0, 'init_ShelterA_1_73': 684.0, 'init_ShelterA_1_75': 735.0, 'init_ShelterA_1_76': 737.0, 'init_ShelterA_1_77': 740.0, 'init_ShelterA_1_78': 742.0, 'init_ShelterA_2_99': 743.0, 'init_ShelterA_2_101': 745.0, 'init_ShelterA_1_79': 749.0, 'init_ShelterA_1_81': 751.0, 'init_ShelterA_1_82': 753.0, 'init_ShelterA_1_83': 756.0, 'init_ShelterA_1_84': 759.0, 'init_ShelterA_1_102': 764.0, 'init_ShelterA_2_103': 766.0, 'init_ShelterA_1_85': 770.0, 'init_ShelterA_1_86': 774.0, 'init_ShelterA_1_87': 784.0, 'init_ShelterA_1_88': 786.0, 'init_ShelterA_1_89': 789.0, 'init_ShelterA_1_90': 792.0, 'init_ShelterA_1_91': 794.0, 'init_ShelterA_1_92': 810.0, 'init_ShelterA_2_110': 814.0, 'init_ShelterA_1_93': 818.0, 'init_ShelterA_1_94': 820.0, 'init_ShelterA_1_95': 830.0, 'init_ShelterA_1_96': 832.0, 'init_ShelterA_1_97': 838.0, 'init_ShelterA_1_98': 840.0, 'init_ShelterA_1_100': 842.0, 'init_ShelterA_1_115': 842.0, 'init_ShelterA_1_104': 845.0, 'init_ShelterA_1_116': 850.0, 'init_ShelterA_1_105': 851.0, 'init_ShelterA_1_106': 857.0, 'init_ShelterA_1_117': 857.0, 'init_ShelterA_1_107': 859.0, 'init_ShelterA_1_108': 861.0, 'init_ShelterA_1_121': 862.0, 'init_ShelterA_1_125': 866.0, 'init_ShelterA_2_126': 898.0, 'init_ShelterA_2_127': 901.0, 'init_ShelterA_1_109': 904.0, 'init_ShelterA_1_111': 907.0, 'init_ShelterA_2_132': 915.0, 'init_ShelterA_1_112': 921.0, 'init_ShelterA_1_113': 923.0, 'init_ShelterA_1_114': 925.0, 'init_ShelterA_2_136': 928.0, 'init_ShelterA_2_141': 944.0, 'init_ShelterA_1_118': 950.0, 'init_ShelterA_1_119': 951.0, 'init_ShelterA_1_120': 953.0, 'init_ShelterA_1_122': 956.0, 'init_ShelterA_1_123': 958.0, 'init_ShelterA_1_124': 961.0, 'init_ShelterA_1_143': 1003.0, 'init_ShelterA_1_144': 1010.0, 'init_ShelterA_1_146': 1017.0, 'init_ShelterA_1_128': 1020.0, 'init_ShelterA_1_129': 1022.0, 'init_ShelterA_1_130': 1024.0, 'init_ShelterA_1_131': 1026.0, 'init_ShelterA_1_147': 1026.0, 'init_ShelterA_2_148': 1028.0, 'init_ShelterA_1_133': 1031.0, 'init_ShelterA_1_134': 1033.0, 'init_ShelterA_1_135': 1036.0, 'init_ShelterA_1_149': 1037.0, 'init_ShelterA_1_137': 1038.0, 'init_ShelterA_2_152': 1039.0, 'init_ShelterA_1_138': 1041.0, 'init_ShelterA_1_155': 1045.0, 'init_ShelterA_1_139': 1046.0, 'init_ShelterA_1_140': 1048.0, 'init_ShelterA_1_156': 1049.0, 'init_ShelterA_1_142': 1073.0, 'init_ShelterA_1_145': 1085.0, 'init_ShelterA_1_150': 1086.0, 'init_ShelterA_1_159': 1090.0, 'init_ShelterA_2_165': 1094.0, 'init_ShelterA_1_185': 1118.0, 'init_ShelterA_1_151': 1125.0, 'init_ShelterA_1_153': 1127.0, 'init_ShelterA_1_154': 1129.0, 'init_ShelterA_1_157': 1131.0, 'init_ShelterA_1_158': 1134.0, 'init_ShelterA_1_160': 1199.0, 'init_ShelterA_1_161': 1201.0, 'init_ShelterA_1_162': 1203.0, 'init_ShelterA_1_163': 1205.0, 'init_ShelterA_1_164': 1207.0, 'init_ShelterA_1_166': 1210.0, 'newveh_ShelterA_2_167_1': 1238.0, 'init_ShelterA_1_188': 1241.0, 'newveh_ShelterA_2_190_22': 1249.0, 'newveh_ShelterA_2_189_21': 1256.0, 'newveh_ShelterA_2_187_20': 1263.0, 'init_ShelterA_1_192': 1267.0, 'newveh_ShelterA_2_186_19': 1270.0, 'init_ShelterA_2_197': 1274.0, 'newveh_ShelterA_2_184_18': 1275.0, 'newveh_ShelterA_2_183_17': 1279.0, 'init_ShelterA_1_198': 1289.0, 'newveh_ShelterA_2_182_16': 1300.0, 'newveh_ShelterA_2_181_15': 1308.0, 'newveh_ShelterA_2_180_14': 1313.0, 'newveh_ShelterA_2_179_13': 1319.0, 'newveh_ShelterA_2_178_12': 1325.0, 'newveh_ShelterA_2_177_11': 1331.0, 'newveh_ShelterA_2_176_10': 1338.0, 'newveh_ShelterA_2_175_9': 1346.0, 'newveh_ShelterA_2_174_8': 1355.0, 'newveh_ShelterA_2_173_7': 1363.0, 'newveh_ShelterA_2_172_6': 1372.0, 'init_ShelterA_1_215': 1374.0, 'init_ShelterA_2_220': 1376.0, 'newveh_ShelterA_2_171_5': 1381.0, 'newveh_ShelterA_2_170_4': 1391.0, 'newveh_ShelterA_2_169_3': 1400.0, 'newveh_ShelterA_2_168_2': 1410.0, 'newveh_ShelterA_2_191_23': 1431.0, 'init_ShelterA_1_193': 1433.0, 'init_ShelterA_1_194': 1435.0, 'init_ShelterA_1_195': 1437.0, 'init_ShelterA_1_196': 1439.0, 'init_ShelterA_1_199': 1442.0, 'init_ShelterA_1_200': 1445.0, 'init_ShelterA_1_201': 1448.0, 'init_ShelterA_1_203': 1451.0, 'init_ShelterA_1_236': 1453.0, 'init_ShelterA_1_204': 1454.0, 'init_ShelterA_1_205': 1457.0, 'init_ShelterA_1_206': 1460.0, 'init_ShelterA_1_207': 1463.0, 'init_ShelterA_1_208': 1466.0, 'init_ShelterA_1_239': 1467.0, 'init_ShelterA_1_211': 1469.0, 'init_ShelterA_1_212': 1472.0, 'init_ShelterA_1_213': 1474.0, 'init_ShelterA_1_240': 1474.0, 'init_ShelterA_1_214': 1477.0, 'init_ShelterA_1_216': 1480.0, 'newveh_ShelterA_1_209_24': 1480.0, 'init_ShelterA_1_217': 1483.0, 'init_ShelterA_1_218': 1486.0, 'newveh_ShelterA_1_202_26': 1486.0, 'init_ShelterA_1_219': 1489.0, 'init_ShelterA_1_221': 1492.0, 'init_ShelterA_1_241': 1493.0, 'init_ShelterA_1_222': 1495.0, 'init_ShelterA_1_229': 1498.0, 'init_ShelterA_1_242': 1498.0, 'init_ShelterA_2_243': 1500.0, 'init_ShelterA_1_230': 1504.0, 'init_ShelterA_1_232': 1506.0, 'init_ShelterA_1_233': 1508.0, 'init_ShelterA_1_234': 1511.0, 'newveh_ShelterA_2_253_63': 1552.0, 'init_ShelterA_1_235': 1555.0, 'init_ShelterA_1_259': 1555.0, 'init_ShelterA_1_262': 1561.0, 'init_ShelterA_1_237': 1566.0, 'init_ShelterA_1_263': 1567.0, 'init_ShelterA_1_265': 1572.0, 'init_ShelterA_1_266': 1577.0, 'init_ShelterA_1_273': 1584.0, 'newveh_ShelterA_2_210_25': 1591.0, 'init_ShelterA_1_245': 1593.0, 'init_ShelterA_1_247': 1595.0, 'init_ShelterA_1_250': 1598.0, 'init_ShelterA_1_251': 1600.0, 'init_ShelterA_1_255': 1602.0, 'init_ShelterA_1_256': 1605.0, 'newveh_ShelterA_2_244_62': 1611.0, 'init_ShelterA_1_258': 1620.0, 'init_ShelterA_1_260': 1622.0, 'init_ShelterA_1_274': 1635.0, 'init_ShelterA_1_261': 1642.0, 'init_ShelterA_1_276': 1642.0, 'init_ShelterA_1_277': 1648.0, 'init_ShelterA_1_279': 1654.0, 'newveh_ShelterA_1_248_35': 1660.0, 'newveh_ShelterA_2_227_27': 1662.0, 'newveh_ShelterA_1_257_36': 1667.0, 'newveh_ShelterA_2_228_29': 1668.0, 'newveh_ShelterA_2_225_28': 1673.0, 'init_ShelterA_1_284': 1674.0, 'init_ShelterA_1_285': 1681.0, 'newveh_ShelterA_2_238_30': 1682.0, 'newveh_ShelterA_2_223_31': 1687.0, 'init_ShelterA_1_286': 1688.0, 'init_ShelterA_1_287': 1692.0, 'newveh_ShelterA_2_224_32': 1695.0, 'newveh_ShelterA_1_264_41': 1697.0, 'newveh_ShelterA_2_226_33': 1701.0, 'newveh_ShelterA_2_231_34': 1705.0, 'init_ShelterA_1_298': 1721.0, 'init_ShelterA_1_299': 1727.0, 'init_ShelterA_1_300': 1733.0, 'newveh_ShelterA_2_304_73': 1735.0, 'init_ShelterA_1_301': 1738.0, 'newveh_ShelterA_2_305_74': 1740.0, 'init_ShelterA_1_283': 1742.0, 'init_ShelterA_1_302': 1744.0, 'init_ShelterA_1_303': 1750.0, 'newveh_ShelterA_2_246_37': 1754.0, 'init_ShelterA_1_306': 1757.0, 'init_ShelterA_1_307': 1764.0, 'init_ShelterA_1_310': 1771.0, 'init_ShelterA_1_288': 1773.0, 'init_ShelterA_1_311': 1775.0, 'init_ShelterA_1_322': 1780.0, 'newveh_ShelterA_2_254_40': 1791.0, 'newveh_ShelterA_2_252_39': 1798.0, 'newveh_ShelterA_2_249_38': 1802.0, 'newveh_ShelterA_2_309_92': 1820.0, 'init_ShelterA_1_323': 1833.0, 'init_ShelterA_1_308': 1838.0, 'init_ShelterA_1_324': 1844.0, 'init_ShelterA_1_325': 1851.0, 'init_ShelterA_1_327': 1858.0, 'init_ShelterA_1_330': 1862.0, 'init_ShelterA_1_332': 1866.0, 'newveh_ShelterA_2_267_42': 1873.0, 'newveh_ShelterA_2_278_43': 1884.0, 'init_ShelterA_1_320': 1886.0, 'init_ShelterA_1_321': 1889.0, 'newveh_ShelterA_2_268_44': 1896.0, 'newveh_ShelterA_2_329_100': 1902.0, 'init_ShelterA_1_339': 1903.0, 'newveh_ShelterA_2_328_99': 1907.0, 'init_ShelterA_1_341': 1914.0, 'newveh_ShelterA_2_337_102': 1915.0, 'newveh_ShelterA_2_336_101': 1919.0, 'newveh_ShelterA_1_293_53': 1922.0, 'newveh_ShelterA_2_269_45': 1924.0, 'init_ShelterA_1_342': 1926.0, 'init_ShelterA_1_343': 1931.0, 'init_ShelterA_1_354': 1935.0, 'newveh_ShelterA_2_270_46': 1937.0, 'newveh_ShelterA_2_271_47': 1944.0, 'newveh_ShelterA_2_272_48': 1949.0, 'newveh_ShelterA_2_282_52': 1955.0, 'newveh_ShelterA_2_281_51': 1960.0, 'newveh_ShelterA_2_280_50': 1969.0, 'newveh_ShelterA_2_275_49': 1982.0, 'init_ShelterA_2_364': 1983.0, 'init_ShelterA_1_326': 1984.0, 'init_ShelterA_1_331': 1986.0, 'init_ShelterA_1_334': 1988.0, 'newveh_ShelterA_2_338_104': 1996.0, 'newveh_ShelterA_1_318_64': 1999.0, 'newveh_ShelterA_2_335_103': 2003.0, 'init_ShelterA_1_366': 2007.0, 'newveh_ShelterA_2_365_116': 2008.0, 'init_ShelterA_1_340': 2010.0, 'init_ShelterA_1_367': 2013.0, 'init_ShelterA_1_368': 2018.0, 'newveh_ShelterA_2_289_54': 2021.0, 'newveh_ShelterA_1_315_68': 2022.0, 'init_ShelterA_1_377': 2027.0, 'newveh_ShelterA_2_297_61': 2029.0, 'newveh_ShelterA_2_296_60': 2035.0, 'newveh_ShelterA_2_295_59': 2040.0, 'newveh_ShelterA_2_294_58': 2046.0, 'newveh_ShelterA_2_292_57': 2051.0, 'newveh_ShelterA_2_291_56': 2059.0, 'newveh_ShelterA_2_290_55': 2064.0, 'init_ShelterA_1_362': 2066.0, 'init_ShelterA_1_363': 2070.0, 'init_ShelterA_1_381': 2089.0, 'init_ShelterA_1_382': 2096.0, 'init_ShelterA_1_383': 2102.0, 'init_ShelterA_1_384': 2108.0, 'newveh_ShelterA_2_312_65': 2109.0, 'newveh_ShelterA_2_314_69': 2114.0, 'init_ShelterA_1_386': 2115.0, 'init_ShelterA_1_387': 2122.0, 'newveh_ShelterA_2_316_67': 2127.0, 'init_ShelterA_1_388': 2130.0, 'newveh_ShelterA_1_345_76': 2136.0, 'newveh_ShelterA_2_313_66': 2137.0, 'init_ShelterA_1_372': 2140.0, 'newveh_ShelterA_1_333_72': 2140.0, 'init_ShelterA_1_373': 2142.0, 'newveh_ShelterA_1_349_80': 2145.0, 'newveh_ShelterA_2_317_70': 2152.0, 'newveh_ShelterA_2_319_71': 2157.0, 'init_ShelterA_1_378': 2159.0, 'init_ShelterA_1_379': 2161.0, 'init_ShelterA_1_380': 2163.0, 'init_ShelterA_1_385': 2166.0, 'newveh_ShelterA_1_369_93': 2195.0, 'newveh_ShelterA_2_344_75': 2221.0, 'newveh_ShelterA_2_352_79': 2228.0, 'newveh_ShelterA_2_355_83': 2236.0, 'newveh_ShelterA_2_347_78': 2241.0, 'newveh_ShelterA_2_346_77': 2245.0, 'newveh_ShelterA_2_350_82': 2258.0, 'newveh_ShelterA_2_348_81': 2283.0, 'newveh_ShelterA_2_357_85': 2289.0, 'newveh_ShelterA_2_356_84': 2294.0, 'newveh_ShelterA_2_360_90': 2307.0, 'newveh_ShelterA_2_359_89': 2314.0, 'newveh_ShelterA_2_358_88': 2319.0, 'newveh_ShelterA_2_361_91': 2324.0, 'newveh_ShelterA_2_353_87': 2330.0, 'newveh_ShelterA_2_351_86': 2336.0, 'newveh_ShelterA_2_375_94': 2344.0, 'newveh_ShelterA_2_370_95': 2349.0, 'newveh_ShelterA_2_399_105': 2354.0, 'newveh_ShelterA_2_389_106': 2361.0, 'newveh_ShelterA_2_390_109': 2366.0, 'newveh_ShelterA_2_376_98': 2371.0, 'newveh_ShelterA_2_374_97': 2377.0, 'newveh_ShelterA_2_371_96': 2383.0, 'newveh_ShelterA_2_398_108': 2389.0, 'newveh_ShelterA_2_395_107': 2396.0, 'newveh_ShelterA_2_397_115': 2403.0, 'newveh_ShelterA_2_396_114': 2412.0, 'newveh_ShelterA_2_394_113': 2419.0, 'newveh_ShelterA_2_393_112': 2427.0, 'newveh_ShelterA_2_392_111': 2431.0, 'newveh_ShelterA_2_391_110': 2436.0}
vehicle_abandant_time_by_pedestrianID_dict:{}
walking_distance_by_pedestrianID_dict:{}
route_change_time_by_vehID_dict:{'init_ShelterA_2_44': 350.0, 'init_ShelterA_1_47': 360.0, 'init_ShelterA_1_41': 370.0, 'init_ShelterA_1_43': 370.0, 'init_ShelterA_1_49': 370.0, 'init_ShelterA_1_51': 370.0, 'init_ShelterA_1_52': 370.0, 'init_ShelterA_2_33': 370.0, 'init_ShelterA_1_45': 380.0, 'init_ShelterA_1_54': 410.0, 'init_ShelterA_1_55': 410.0, 'init_ShelterA_1_59': 420.0, 'init_ShelterA_2_58': 420.0, 'init_ShelterA_1_53': 430.0, 'init_ShelterA_1_57': 430.0, 'init_ShelterA_1_62': 430.0, 'init_ShelterA_1_65': 430.0, 'init_ShelterA_2_64': 430.0, 'init_ShelterA_1_63': 440.0, 'init_ShelterA_1_61': 450.0, 'init_ShelterA_1_60': 460.0, 'init_ShelterA_1_68': 460.0, 'init_ShelterA_1_69': 460.0, 'init_ShelterA_1_72': 490.0, 'init_ShelterA_1_66': 500.0, 'init_ShelterA_1_70': 500.0, 'init_ShelterA_1_73': 500.0, 'init_ShelterA_1_76': 510.0, 'init_ShelterA_1_77': 510.0, 'init_ShelterA_1_75': 520.0, 'init_ShelterA_1_79': 520.0, 'init_ShelterA_1_81': 520.0, 'init_ShelterA_1_83': 520.0, 'init_ShelterA_2_80': 520.0, 'init_ShelterA_1_78': 530.0, 'init_ShelterA_1_82': 550.0, 'init_ShelterA_1_84': 550.0, 'init_ShelterA_1_85': 550.0, 'init_ShelterA_1_87': 550.0, 'init_ShelterA_1_88': 550.0, 'init_ShelterA_1_86': 560.0, 'init_ShelterA_1_89': 580.0, 'init_ShelterA_2_99': 580.0, 'init_ShelterA_1_90': 590.0, 'init_ShelterA_1_91': 590.0, 'init_ShelterA_1_93': 590.0, 'init_ShelterA_1_95': 590.0, 'init_ShelterA_1_96': 590.0, 'init_ShelterA_1_97': 590.0, 'init_ShelterA_1_100': 600.0, 'init_ShelterA_1_92': 600.0, 'init_ShelterA_1_94': 600.0, 'init_ShelterA_1_98': 600.0, 'init_ShelterA_2_101': 600.0, 'init_ShelterA_2_103': 600.0, 'init_ShelterA_1_104': 610.0, 'init_ShelterA_1_106': 610.0, 'init_ShelterA_1_109': 670.0, 'init_ShelterA_1_113': 670.0, 'init_ShelterA_1_114': 670.0, 'init_ShelterA_2_110': 670.0, 'init_ShelterA_1_105': 680.0, 'init_ShelterA_1_107': 680.0, 'init_ShelterA_1_108': 680.0, 'init_ShelterA_1_111': 680.0, 'init_ShelterA_1_112': 680.0, 'init_ShelterA_1_118': 690.0, 'init_ShelterA_1_167': 720.0, 'init_ShelterA_1_168': 720.0, 'init_ShelterA_1_169': 720.0, 'init_ShelterA_1_170': 720.0, 'init_ShelterA_1_171': 720.0, 'init_ShelterA_1_172': 720.0, 'init_ShelterA_1_173': 720.0, 'init_ShelterA_1_174': 720.0, 'init_ShelterA_1_175': 720.0, 'init_ShelterA_1_176': 720.0, 'init_ShelterA_1_177': 720.0, 'init_ShelterA_1_178': 720.0, 'init_ShelterA_1_179': 720.0, 'init_ShelterA_1_180': 720.0, 'init_ShelterA_1_181': 720.0, 'init_ShelterA_1_182': 720.0, 'init_ShelterA_1_183': 720.0, 'init_ShelterA_1_184': 720.0, 'init_ShelterA_1_186': 720.0, 'init_ShelterA_1_187': 720.0, 'init_ShelterA_1_189': 720.0, 'init_ShelterA_1_190': 720.0, 'init_ShelterA_1_191': 720.0, 'init_ShelterA_2_126': 750.0, 'init_ShelterA_1_122': 760.0, 'init_ShelterA_1_124': 760.0, 'init_ShelterA_1_129': 760.0, 'init_ShelterA_2_127': 760.0, 'init_ShelterA_2_132': 760.0, 'init_ShelterA_1_119': 770.0, 'init_ShelterA_1_120': 770.0, 'init_ShelterA_1_123': 770.0, 'init_ShelterA_1_130': 770.0, 'init_ShelterA_1_133': 770.0, 'init_ShelterA_1_137': 770.0, 'init_ShelterA_1_138': 770.0, 'init_ShelterA_1_139': 770.0, 'init_ShelterA_1_140': 770.0, 'init_ShelterA_2_136': 770.0, 'init_ShelterA_1_128': 780.0, 'init_ShelterA_1_131': 780.0, 'init_ShelterA_1_134': 780.0, 'init_ShelterA_1_135': 780.0, 'init_ShelterA_1_142': 780.0, 'init_ShelterA_2_141': 780.0, 'init_ShelterA_1_145': 830.0, 'init_ShelterA_2_148': 850.0, 'init_ShelterA_2_152': 850.0, 'init_ShelterA_1_150': 860.0, 'init_ShelterA_2_197': 860.0, 'init_ShelterA_2_209': 890.0, 'init_ShelterA_1_210': 900.0, 'init_ShelterA_2_202': 900.0, 'init_ShelterA_1_151': 910.0, 'init_ShelterA_1_157': 920.0, 'init_ShelterA_1_158': 920.0, 'init_ShelterA_1_153': 930.0, 'init_ShelterA_1_154': 930.0, 'init_ShelterA_1_162': 930.0, 'init_ShelterA_2_165': 930.0, 'init_ShelterA_1_188': 940.0, 'init_ShelterA_1_164': 950.0, 'init_ShelterA_1_227': 960.0, 'init_ShelterA_1_225': 970.0, 'init_ShelterA_1_228': 970.0, 'init_ShelterA_1_238': 970.0, 'init_ShelterA_1_223': 980.0, 'init_ShelterA_1_224': 980.0, 'init_ShelterA_1_226': 980.0, 'init_ShelterA_1_231': 980.0, 'init_ShelterA_1_166': 1000.0, 'init_ShelterA_1_161': 1010.0, 'init_ShelterA_1_163': 1010.0, 'init_ShelterA_1_160': 1020.0, 'init_ShelterA_2_248': 1030.0, 'init_ShelterA_2_257': 1050.0, 'init_ShelterA_1_246': 1060.0, 'init_ShelterA_1_249': 1060.0, 'init_ShelterA_1_252': 1060.0, 'init_ShelterA_1_254': 1060.0, 'init_ShelterA_2_264': 1080.0, 'init_ShelterA_1_193': 1110.0, 'init_ShelterA_1_195': 1110.0, 'init_ShelterA_1_196': 1110.0, 'init_ShelterA_1_199': 1110.0, 'init_ShelterA_1_200': 1110.0, 'init_ShelterA_1_201': 1110.0, 'init_ShelterA_1_204': 1110.0, 'init_ShelterA_1_206': 1110.0, 'init_ShelterA_1_194': 1120.0, 'init_ShelterA_1_203': 1120.0, 'init_ShelterA_1_205': 1120.0, 'init_ShelterA_1_207': 1120.0, 'init_ShelterA_1_267': 1140.0, 'init_ShelterA_1_278': 1150.0, 'init_ShelterA_1_268': 1160.0, 'init_ShelterA_1_269': 1160.0, 'init_ShelterA_1_270': 1160.0, 'init_ShelterA_1_271': 1160.0, 'init_ShelterA_1_272': 1160.0, 'init_ShelterA_1_275': 1160.0, 'init_ShelterA_1_280': 1160.0, 'init_ShelterA_1_281': 1160.0, 'init_ShelterA_1_282': 1160.0, 'init_ShelterA_2_220': 1170.0, 'init_ShelterA_1_219': 1180.0, 'init_ShelterA_1_221': 1180.0, 'init_ShelterA_1_222': 1180.0, 'init_ShelterA_1_233': 1180.0, 'init_ShelterA_1_234': 1180.0, 'init_ShelterA_1_235': 1180.0, 'init_ShelterA_1_237': 1180.0, 'init_ShelterA_1_211': 1190.0, 'init_ShelterA_1_212': 1190.0, 'init_ShelterA_1_217': 1190.0, 'init_ShelterA_1_229': 1190.0, 'init_ShelterA_1_230': 1190.0, 'init_ShelterA_1_232': 1190.0, 'init_ShelterA_1_208': 1200.0, 'init_ShelterA_1_213': 1200.0, 'init_ShelterA_1_216': 1200.0, 'init_ShelterA_1_218': 1200.0, 'init_ShelterA_1_214': 1210.0, 'init_ShelterA_2_293': 1220.0, 'init_ShelterA_1_289': 1230.0, 'init_ShelterA_1_290': 1230.0, 'init_ShelterA_1_291': 1230.0, 'init_ShelterA_1_292': 1230.0, 'init_ShelterA_1_294': 1230.0, 'init_ShelterA_1_295': 1230.0, 'init_ShelterA_1_296': 1230.0, 'init_ShelterA_1_297': 1230.0, 'init_ShelterA_2_243': 1240.0, 'init_ShelterA_1_245': 1250.0, 'init_ShelterA_1_244': 1260.0, 'init_ShelterA_1_253': 1260.0, 'init_ShelterA_1_256': 1270.0, 'init_ShelterA_1_258': 1270.0, 'init_ShelterA_1_260': 1270.0, 'init_ShelterA_1_261': 1270.0, 'init_ShelterA_1_247': 1300.0, 'init_ShelterA_1_251': 1300.0, 'init_ShelterA_1_255': 1300.0, 'init_ShelterA_2_318': 1300.0, 'init_ShelterA_1_250': 1310.0, 'init_ShelterA_1_312': 1310.0, 'init_ShelterA_1_313': 1310.0, 'init_ShelterA_1_316': 1310.0, 'init_ShelterA_2_315': 1310.0, 'init_ShelterA_1_314': 1320.0, 'init_ShelterA_1_317': 1320.0, 'init_ShelterA_1_319': 1320.0, 'init_ShelterA_2_333': 1410.0, 'init_ShelterA_1_304': 1450.0, 'init_ShelterA_1_305': 1450.0, 'init_ShelterA_1_344': 1450.0, 'init_ShelterA_2_345': 1460.0, 'init_ShelterA_1_308': 1470.0, 'init_ShelterA_1_320': 1470.0, 'init_ShelterA_1_321': 1470.0, 'init_ShelterA_1_346': 1480.0, 'init_ShelterA_1_347': 1480.0, 'init_ShelterA_1_352': 1480.0, 'init_ShelterA_2_349': 1480.0, 'init_ShelterA_1_348': 1490.0, 'init_ShelterA_1_350': 1490.0, 'init_ShelterA_1_355': 1490.0, 'init_ShelterA_1_356': 1490.0, 'init_ShelterA_1_357': 1490.0, 'init_ShelterA_1_351': 1500.0, 'init_ShelterA_1_353': 1500.0, 'init_ShelterA_1_358': 1500.0, 'init_ShelterA_1_359': 1500.0, 'init_ShelterA_1_360': 1500.0, 'init_ShelterA_1_361': 1500.0, 'init_ShelterA_1_309': 1520.0, 'init_ShelterA_2_369': 1530.0, 'init_ShelterA_1_288': 1540.0, 'init_ShelterA_1_283': 1550.0, 'init_ShelterA_1_331': 1560.0, 'init_ShelterA_1_334': 1560.0, 'init_ShelterA_1_375': 1570.0, 'init_ShelterA_1_370': 1580.0, 'init_ShelterA_1_371': 1580.0, 'init_ShelterA_1_374': 1580.0, 'init_ShelterA_1_376': 1580.0, 'init_ShelterA_1_328': 1600.0, 'init_ShelterA_1_329': 1600.0, 'init_ShelterA_1_336': 1610.0, 'init_ShelterA_1_337': 1610.0, 'init_ShelterA_1_340': 1610.0, 'init_ShelterA_1_335': 1620.0, 'init_ShelterA_1_338': 1620.0, 'init_ShelterA_1_399': 1630.0, 'init_ShelterA_1_389': 1640.0, 'init_ShelterA_1_395': 1640.0, 'init_ShelterA_1_398': 1640.0, 'init_ShelterA_1_362': 1650.0, 'init_ShelterA_1_390': 1650.0, 'init_ShelterA_1_391': 1650.0, 'init_ShelterA_1_392': 1650.0, 'init_ShelterA_1_393': 1650.0, 'init_ShelterA_1_394': 1650.0, 'init_ShelterA_1_396': 1650.0, 'init_ShelterA_1_397': 1650.0, 'init_ShelterA_2_364': 1660.0, 'init_ShelterA_1_365': 1700.0, 'init_ShelterA_1_326': 1720.0, 'init_ShelterA_1_373': 1730.0, 'init_ShelterA_1_363': 1820.0, 'init_ShelterA_1_385': 1860.0, 'init_ShelterA_1_380': 1870.0, 'init_ShelterA_1_378': 1880.0, 'init_ShelterA_1_379': 1880.0, 'init_ShelterA_1_372': 1910.0}
pedestrian_count:0
route_changed_vehicle_count:282
route_change_event_count:282
rate_vehicle_abandonment:0.00%
wrong_way_driving_count:0
vehicle_abandonment_count:0
normalcy_bias_route_change_count:154
majority_bias_route_change_count:128
lane_changed_vehicle_count:0
info_obtained_lanechange_count:0
elapsed_time_lanechange_count:0
majority_bias_lanechange_count:0

=== Job Result ===
end=2026-07-13T02:28:25+0900
elapsed_seconds=445
exit_code=0
status=SUCCESS
