=== Job Info ===
job_name=va_s4_e1.0_v1.0_r21
host=schubert
pid=113385
scenario=4
early_rate=1.0
v2v_rate=1.0
run_id=21
config=/home/katagi/vehicle-assistant-system/scenarios/JIP/configs/config_scenario_4.toml
output_dir=/home/katagi/vehicle-assistant-system/schubert_logs/va_s4_e1.0_v1.0_r21
start=2026-07-13T01:15:02+0900
python_version=Python 3.12.3
sumo_version=Eclipse SUMO sumo Version v1_23_1+0435-630512a

=== Command ===
cd /home/katagi/vehicle-assistant-system/schubert_logs/va_s4_e1.0_v1.0_r21
PYTHONPATH=/home/katagi/vehicle-assistant-system:/home/katagi/tmp/sumo/tools:/home/katagi/local/sumo/tools:/home/katagi/tmp/sumo/tools:/home/katagi/local/sumo/tools:/home/katagi/tmp/sumo/tools:/home/katagi/local/sumo/tools: python3 -W ignore::UserWarning -m scenarios.JIP.1-1-4.simulation.runner_simulator --nogui /home/katagi/vehicle-assistant-system/scenarios/JIP/configs/config_scenario_4.toml 1.0 1.0
simulation_pid=113405
Step #0.00 (0ms ?*RT. ?UPS, TraCI: 336ms, vehicles TOT 1 ACT 1 BUF 0)                     Step #100.00 (0ms ?*RT. ?UPS, TraCI: 18ms, vehicles TOT 26 ACT 26 BUF 0)                  Step #200.00 (0ms ?*RT. ?UPS, TraCI: 37ms, vehicles TOT 51 ACT 51 BUF 0)                  Step #300.00 (0ms ?*RT. ?UPS, TraCI: 55ms, vehicles TOT 77 ACT 77 BUF 0)                  Step #400.00 (1ms ~= 1000.00*RT, ~104000.00UPS, TraCI: 1872ms, vehicles TOT 104 ACT 104 BUStep #500.00 (1ms ~= 1000.00*RT, ~131000.00UPS, TraCI: 1637ms, vehicles TOT 131 ACT 131 BUStep #600.00 (1ms ~= 1000.00*RT, ~158000.00UPS, TraCI: 1457ms, vehicles TOT 158 ACT 158 BUStep #700.00 (0ms ?*RT. ?UPS, TraCI: 1298ms, vehicles TOT 186 ACT 186 BUF 0)              Step #800.00 (1ms ~= 1000.00*RT, ~212000.00UPS, TraCI: 1143ms, vehicles TOT 212 ACT 212 BUStep #900.00 (1ms ~= 1000.00*RT, ~212000.00UPS, TraCI: 2082ms, vehicles TOT 240 ACT 212 BUStep #1000.00 (1ms ~= 1000.00*RT, ~237000.00UPS, TraCI: 1998ms, vehicles TOT 274 ACT 237 BStep #1100.00 (1ms ~= 1000.00*RT, ~252000.00UPS, TraCI: 412ms, vehicles TOT 304 ACT 252 BUStep #1200.00 (1ms ~= 1000.00*RT, ~283000.00UPS, TraCI: 1340ms, vehicles TOT 336 ACT 283 BStep #1300.00 (1ms ~= 1000.00*RT, ~306000.00UPS, TraCI: 2789ms, vehicles TOT 363 ACT 306 BStep #1400.00 (1ms ~= 1000.00*RT, ~325000.00UPS, TraCI: 3594ms, vehicles TOT 397 ACT 325 BStep #1500.00 (0ms ?*RT. ?UPS, TraCI: 2347ms, vehicles TOT 431 ACT 339 BUF 61)            Step #1600.00 (1ms ~= 1000.00*RT, ~364000.00UPS, TraCI: 2450ms, vehicles TOT 470 ACT 364 BStep #1700.00 (1ms ~= 1000.00*RT, ~388000.00UPS, TraCI: 2177ms, vehicles TOT 497 ACT 388 BStep #1800.00 (1ms ~= 1000.00*RT, ~400000.00UPS, TraCI: 2781ms, vehicles TOT 510 ACT 400 BStep #1900.00 (1ms ~= 1000.00*RT, ~400000.00UPS, TraCI: 1908ms, vehicles TOT 512 ACT 400 BStep #2000.00 (0ms ?*RT. ?UPS, TraCI: 895ms, vehicles TOT 512 ACT 400 BUF 0)              Step #2100.00 (0ms ?*RT. ?UPS, TraCI: 346ms, vehicles TOT 512 ACT 400 BUF 0)              Step #2200.00 (0ms ?*RT. ?UPS, TraCI: 59ms, vehicles TOT 512 ACT 400 BUF 0)               Step #2300.00 (0ms ?*RT. ?UPS, TraCI: 99ms, vehicles TOT 512 ACT 400 BUF 0)               Step #2400.00 (0ms ?*RT. ?UPS, TraCI: 93ms, vehicles TOT 512 ACT 400 BUF 0)               Step #2500.00 (0ms ?*RT. ?UPS, TraCI: 53ms, vehicles TOT 512 ACT 400 BUF 0)               Step #2600.00 (0ms ?*RT. ?UPS, TraCI: 78ms, vehicles TOT 512 ACT 400 BUF 0)               Step #2700.00 (1ms ~= 1000.00*RT, ~400000.00UPS, TraCI: 78ms, vehicles TOT 512 ACT 400 BUFStep #2800.00 (0ms ?*RT. ?UPS, TraCI: 79ms, vehicles TOT 512 ACT 400 BUF 0)               Step #2900.00 (0ms ?*RT. ?UPS, TraCI: 79ms, vehicles TOT 512 ACT 400 BUF 0)               Step #3000.00 (0ms ?*RT. ?UPS, TraCI: 79ms, vehicles TOT 512 ACT 400 BUF 0)               
 Retrying in 1 seconds
出現数: {'A1': 368, 'A2': 32}
割合:
  Total: 400
  A1: 368 (92.00%)
  A2: 32 (8.00%)
  B1: 0 (0.00%)
  B2: 0 (0.00%)
mean elapsed_time: 558.9575
OK all vehs arrived 
平均渋滞継続時間: 470.13秒
OK all vehicle abandonment were detected
274
126
===== Simlation Result Summary =====
avg_congestion_duration: 470.13 
arrival_time_by_vehID_dict:{'init_ShelterA_1_0': 224.0, 'init_ShelterA_1_1': 231.0, 'init_ShelterA_1_2': 238.0, 'init_ShelterA_1_4': 245.0, 'init_ShelterA_1_5': 249.0, 'init_ShelterA_1_6': 254.0, 'init_ShelterA_1_7': 286.0, 'init_ShelterA_1_8': 295.0, 'init_ShelterA_1_9': 301.0, 'init_ShelterA_1_10': 307.0, 'init_ShelterA_1_11': 313.0, 'init_ShelterA_1_12': 320.0, 'init_ShelterA_1_13': 327.0, 'init_ShelterA_2_3': 327.0, 'init_ShelterA_1_14': 336.0, 'init_ShelterA_1_16': 344.0, 'init_ShelterA_1_17': 353.0, 'init_ShelterA_1_18': 363.0, 'init_ShelterA_1_19': 372.0, 'init_ShelterA_1_20': 382.0, 'init_ShelterA_1_21': 392.0, 'init_ShelterA_1_22': 401.0, 'init_ShelterA_2_15': 405.0, 'init_ShelterA_1_23': 411.0, 'init_ShelterA_1_24': 421.0, 'init_ShelterA_1_25': 431.0, 'init_ShelterA_1_26': 440.0, 'init_ShelterA_1_27': 450.0, 'init_ShelterA_1_28': 460.0, 'init_ShelterA_1_29': 469.0, 'init_ShelterA_1_30': 479.0, 'init_ShelterA_1_31': 489.0, 'init_ShelterA_1_32': 498.0, 'init_ShelterA_1_33': 508.0, 'init_ShelterA_1_34': 518.0, 'init_ShelterA_1_35': 527.0, 'init_ShelterA_1_36': 537.0, 'init_ShelterA_1_43': 543.0, 'init_ShelterA_1_37': 546.0, 'init_ShelterA_1_38': 556.0, 'init_ShelterA_1_39': 566.0, 'init_ShelterA_1_45': 574.0, 'init_ShelterA_1_40': 575.0, 'init_ShelterA_1_41': 584.0, 'init_ShelterA_1_49': 586.0, 'init_ShelterA_1_51': 589.0, 'init_ShelterA_1_52': 592.0, 'init_ShelterA_1_42': 594.0, 'init_ShelterA_1_53': 594.0, 'init_ShelterA_1_54': 598.0, 'init_ShelterA_1_56': 600.0, 'init_ShelterA_1_44': 603.0, 'init_ShelterA_1_57': 603.0, 'init_ShelterA_1_58': 606.0, 'init_ShelterA_1_46': 613.0, 'init_ShelterA_1_47': 622.0, 'init_ShelterA_2_48': 624.0, 'init_ShelterA_1_60': 628.0, 'init_ShelterA_1_50': 634.0, 'init_ShelterA_1_61': 638.0, 'init_ShelterA_1_55': 644.0, 'init_ShelterA_2_59': 646.0, 'init_ShelterA_2_63': 648.0, 'init_ShelterA_1_65': 659.0, 'init_ShelterA_1_62': 660.0, 'init_ShelterA_1_64': 662.0, 'init_ShelterA_1_67': 665.0, 'init_ShelterA_1_66': 668.0, 'init_ShelterA_1_68': 668.0, 'init_ShelterA_1_69': 671.0, 'init_ShelterA_1_70': 674.0, 'init_ShelterA_1_71': 677.0, 'init_ShelterA_1_74': 677.0, 'init_ShelterA_1_72': 680.0, 'init_ShelterA_1_75': 686.0, 'init_ShelterA_1_73': 688.0, 'init_ShelterA_1_76': 695.0, 'init_ShelterA_1_79': 706.0, 'init_ShelterA_2_81': 708.0, 'init_ShelterA_2_82': 710.0, 'init_ShelterA_2_83': 713.0, 'init_ShelterA_1_87': 723.0, 'init_ShelterA_1_88': 732.0, 'init_ShelterA_1_89': 740.0, 'init_ShelterA_1_77': 741.0, 'init_ShelterA_2_90': 742.0, 'init_ShelterA_1_78': 743.0, 'init_ShelterA_1_80': 747.0, 'init_ShelterA_1_84': 749.0, 'init_ShelterA_1_91': 751.0, 'init_ShelterA_1_85': 756.0, 'init_ShelterA_1_86': 758.0, 'init_ShelterA_1_92': 760.0, 'init_ShelterA_1_93': 769.0, 'init_ShelterA_1_94': 778.0, 'init_ShelterA_1_95': 788.0, 'init_ShelterA_1_97': 798.0, 'init_ShelterA_1_99': 807.0, 'init_ShelterA_1_100': 817.0, 'init_ShelterA_1_96': 821.0, 'init_ShelterA_1_98': 824.0, 'init_ShelterA_1_101': 827.0, 'init_ShelterA_1_105': 833.0, 'init_ShelterA_1_102': 836.0, 'init_ShelterA_1_103': 846.0, 'init_ShelterA_2_104': 848.0, 'init_ShelterA_1_106': 850.0, 'init_ShelterA_1_107': 852.0, 'init_ShelterA_1_108': 854.0, 'init_ShelterA_1_109': 858.0, 'init_ShelterA_1_110': 868.0, 'init_ShelterA_1_111': 878.0, 'init_ShelterA_1_113': 887.0, 'init_ShelterA_1_116': 897.0, 'init_ShelterA_1_117': 906.0, 'init_ShelterA_1_118': 916.0, 'init_ShelterA_1_119': 926.0, 'init_ShelterA_2_120': 928.0, 'init_ShelterA_1_122': 938.0, 'init_ShelterA_1_112': 940.0, 'init_ShelterA_1_114': 942.0, 'init_ShelterA_1_115': 945.0, 'init_ShelterA_1_121': 947.0, 'init_ShelterA_1_123': 948.0, 'init_ShelterA_1_125': 949.0, 'init_ShelterA_1_126': 953.0, 'init_ShelterA_1_124': 957.0, 'init_ShelterA_1_127': 967.0, 'init_ShelterA_1_128': 977.0, 'init_ShelterA_1_129': 986.0, 'init_ShelterA_2_131': 988.0, 'init_ShelterA_1_132': 998.0, 'init_ShelterA_1_130': 1007.0, 'init_ShelterA_1_134': 1008.0, 'init_ShelterA_1_133': 1009.0, 'init_ShelterA_1_135': 1018.0, 'init_ShelterA_2_136': 1021.0, 'init_ShelterA_2_137': 1023.0, 'init_ShelterA_1_138': 1024.0, 'init_ShelterA_1_139': 1033.0, 'init_ShelterA_1_141': 1033.0, 'init_ShelterA_1_140': 1035.0, 'init_ShelterA_1_142': 1042.0, 'init_ShelterA_1_144': 1052.0, 'init_ShelterA_1_145': 1062.0, 'init_ShelterA_1_146': 1071.0, 'init_ShelterA_1_147': 1081.0, 'init_ShelterA_1_148': 1091.0, 'init_ShelterA_1_149': 1101.0, 'init_ShelterA_1_150': 1110.0, 'init_ShelterA_1_143': 1116.0, 'init_ShelterA_1_152': 1117.0, 'init_ShelterA_1_151': 1120.0, 'init_ShelterA_1_153': 1120.0, 'init_ShelterA_2_156': 1123.0, 'init_ShelterA_2_158': 1124.0, 'init_ShelterA_1_154': 1129.0, 'init_ShelterA_1_155': 1131.0, 'init_ShelterA_1_157': 1133.0, 'init_ShelterA_1_159': 1135.0, 'init_ShelterA_2_167': 1138.0, 'init_ShelterA_1_174': 1143.0, 'init_ShelterA_2_176': 1146.0, 'init_ShelterA_1_160': 1169.0, 'init_ShelterA_1_161': 1171.0, 'init_ShelterA_1_162': 1173.0, 'init_ShelterA_1_163': 1182.0, 'init_ShelterA_1_164': 1188.0, 'init_ShelterA_1_165': 1190.0, 'init_ShelterA_1_166': 1192.0, 'init_ShelterA_1_168': 1198.0, 'init_ShelterA_1_169': 1207.0, 'init_ShelterA_1_216': 1208.0, 'init_ShelterA_1_170': 1215.0, 'init_ShelterA_1_171': 1218.0, 'init_ShelterA_1_172': 1219.0, 'init_ShelterA_1_173': 1222.0, 'init_ShelterA_1_175': 1225.0, 'init_ShelterA_1_177': 1268.0, 'init_ShelterA_1_178': 1283.0, 'init_ShelterA_1_179': 1287.0, 'init_ShelterA_1_180': 1296.0, 'init_ShelterA_1_181': 1298.0, 'init_ShelterA_1_182': 1300.0, 'init_ShelterA_1_183': 1315.0, 'init_ShelterA_1_184': 1316.0, 'init_ShelterA_1_185': 1318.0, 'init_ShelterA_1_186': 1321.0, 'newveh_ShelterA_2_187_0': 1351.0, 'init_ShelterA_1_215': 1353.0, 'init_ShelterA_1_217': 1355.0, 'newveh_ShelterA_2_188_1': 1362.0, 'newveh_ShelterA_2_189_2': 1367.0, 'newveh_ShelterA_2_190_3': 1376.0, 'newveh_ShelterA_1_211_27': 1379.0, 'newveh_ShelterA_2_191_4': 1382.0, 'init_ShelterA_1_218': 1390.0, 'newveh_ShelterA_2_192_5': 1390.0, 'newveh_ShelterA_2_193_6': 1395.0, 'init_ShelterA_1_219': 1397.0, 'newveh_ShelterA_2_194_7': 1399.0, 'init_ShelterA_1_220': 1402.0, 'newveh_ShelterA_2_195_8': 1406.0, 'init_ShelterA_1_221': 1408.0, 'newveh_ShelterA_2_196_9': 1411.0, 'init_ShelterA_1_223': 1415.0, 'newveh_ShelterA_2_197_10': 1417.0, 'init_ShelterA_1_227': 1422.0, 'newveh_ShelterA_2_198_11': 1423.0, 'init_ShelterA_1_228': 1426.0, 'newveh_ShelterA_2_199_12': 1429.0, 'init_ShelterA_1_229': 1431.0, 'newveh_ShelterA_2_200_13': 1437.0, 'newveh_ShelterA_2_201_14': 1444.0, 'newveh_ShelterA_2_203_16': 1452.0, 'init_ShelterA_1_230': 1456.0, 'newveh_ShelterA_2_202_15': 1457.0, 'init_ShelterA_1_231': 1462.0, 'newveh_ShelterA_2_204_17': 1462.0, 'init_ShelterA_1_232': 1467.0, 'newveh_ShelterA_2_205_18': 1469.0, 'init_ShelterA_1_233': 1472.0, 'newveh_ShelterA_2_206_19': 1476.0, 'init_ShelterA_1_239': 1478.0, 'newveh_ShelterA_2_207_20': 1483.0, 'init_ShelterA_1_240': 1484.0, 'init_ShelterA_1_241': 1490.0, 'newveh_ShelterA_2_208_21': 1491.0, 'init_ShelterA_1_242': 1497.0, 'newveh_ShelterA_2_209_22': 1500.0, 'init_ShelterA_1_243': 1505.0, 'newveh_ShelterA_2_210_23': 1509.0, 'init_ShelterA_1_244': 1513.0, 'newveh_ShelterA_2_214_26': 1516.0, 'newveh_ShelterA_2_213_25': 1521.0, 'init_ShelterA_1_245': 1522.0, 'newveh_ShelterA_2_212_24': 1525.0, 'init_ShelterA_1_246': 1531.0, 'init_ShelterA_1_247': 1538.0, 'init_ShelterA_1_248': 1546.0, 'newveh_ShelterA_2_267_56': 1552.0, 'init_ShelterA_1_254': 1553.0, 'newveh_ShelterA_1_234_28': 1560.0, 'init_ShelterA_1_265': 1568.0, 'init_ShelterA_1_266': 1576.0, 'newveh_ShelterA_1_236_36': 1585.0, 'init_ShelterA_1_268': 1594.0, 'init_ShelterA_1_269': 1599.0, 'init_ShelterA_2_273': 1601.0, 'init_ShelterA_2_274': 1603.0, 'newveh_ShelterA_2_222_29': 1604.0, 'init_ShelterA_1_280': 1638.0, 'init_ShelterA_1_281': 1648.0, 'init_ShelterA_1_283': 1656.0, 'newveh_ShelterA_2_238_35': 1661.0, 'init_ShelterA_1_286': 1662.0, 'init_ShelterA_2_287': 1664.0, 'init_ShelterA_1_289': 1669.0, 'newveh_ShelterA_2_237_34': 1674.0, 'newveh_ShelterA_2_224_30': 1680.0, 'newveh_ShelterA_2_225_31': 1684.0, 'newveh_ShelterA_2_235_33': 1740.0, 'newveh_ShelterA_2_226_32': 1754.0, 'init_ShelterA_1_295': 1755.0, 'init_ShelterA_1_270': 1756.0, 'init_ShelterA_1_271': 1758.0, 'init_ShelterA_1_272': 1760.0, 'init_ShelterA_1_298': 1760.0, 'init_ShelterA_1_302': 1765.0, 'newveh_ShelterA_2_291_79': 1768.0, 'newveh_ShelterA_2_290_81': 1776.0, 'newveh_ShelterA_2_288_80': 1796.0, 'init_ShelterA_1_275': 1799.0, 'init_ShelterA_1_276': 1801.0, 'init_ShelterA_1_278': 1803.0, 'init_ShelterA_1_279': 1805.0, 'init_ShelterA_1_282': 1807.0, 'init_ShelterA_1_284': 1810.0, 'init_ShelterA_1_285': 1813.0, 'init_ShelterA_1_310': 1820.0, 'newveh_ShelterA_2_249_37': 1820.0, 'newveh_ShelterA_2_264_43': 1826.0, 'init_ShelterA_1_319': 1827.0, 'newveh_ShelterA_1_277_52': 1832.0, 'newveh_ShelterA_2_263_42': 1834.0, 'init_ShelterA_1_322': 1842.0, 'newveh_ShelterA_2_261_41': 1843.0, 'init_ShelterA_1_323': 1848.0, 'newveh_ShelterA_2_313_92': 1853.0, 'init_ShelterA_1_324': 1856.0, 'init_ShelterA_1_325': 1861.0, 'newveh_ShelterA_2_257_40': 1862.0, 'init_ShelterA_1_333': 1868.0, 'newveh_ShelterA_2_251_39': 1872.0, 'init_ShelterA_1_335': 1873.0, 'init_ShelterA_1_336': 1877.0, 'newveh_ShelterA_2_250_38': 1882.0, 'newveh_ShelterA_2_252_44': 1891.0, 'newveh_ShelterA_2_262_51': 1901.0, 'init_ShelterA_1_339': 1905.0, 'newveh_ShelterA_2_260_50': 1911.0, 'init_ShelterA_1_340': 1912.0, 'init_ShelterA_1_341': 1917.0, 'newveh_ShelterA_2_259_49': 1920.0, 'init_ShelterA_1_342': 1923.0, 'init_ShelterA_1_344': 1929.0, 'newveh_ShelterA_2_258_48': 1930.0, 'init_ShelterA_1_345': 1935.0, 'newveh_ShelterA_2_256_47': 1940.0, 'init_ShelterA_1_346': 1942.0, 'init_ShelterA_1_347': 1950.0, 'newveh_ShelterA_2_255_46': 1950.0, 'init_ShelterA_1_348': 1958.0, 'init_ShelterA_1_349': 1967.0, 'newveh_ShelterA_2_253_45': 1970.0, 'init_ShelterA_1_296': 1972.0, 'init_ShelterA_1_306': 1974.0, 'init_ShelterA_1_350': 1975.0, 'init_ShelterA_1_307': 1976.0, 'init_ShelterA_1_308': 1979.0, 'init_ShelterA_1_314': 1981.0, 'init_ShelterA_1_356': 1981.0, 'init_ShelterA_1_316': 1983.0, 'init_ShelterA_1_317': 1985.0, 'init_ShelterA_1_357': 1986.0, 'init_ShelterA_1_318': 1988.0, 'init_ShelterA_1_320': 1991.0, 'init_ShelterA_1_361': 1991.0, 'init_ShelterA_1_321': 1994.0, 'init_ShelterA_1_362': 1996.0, 'init_ShelterA_1_363': 2002.0, 'init_ShelterA_1_364': 2007.0, 'init_ShelterA_1_367': 2014.0, 'newveh_ShelterA_2_292_53': 2018.0, 'init_ShelterA_1_368': 2019.0, 'newveh_ShelterA_2_293_54': 2024.0, 'init_ShelterA_1_369': 2026.0, 'newveh_ShelterA_2_294_55': 2028.0, 'init_ShelterA_1_370': 2030.0, 'init_ShelterA_1_373': 2034.0, 'newveh_ShelterA_2_391_109': 2039.0, 'init_ShelterA_1_379': 2094.0, 'newveh_ShelterA_2_297_57': 2095.0, 'init_ShelterA_1_380': 2100.0, 'init_ShelterA_1_381': 2105.0, 'newveh_ShelterA_2_315_62': 2107.0, 'init_ShelterA_1_383': 2112.0, 'newveh_ShelterA_2_300_63': 2113.0, 'init_ShelterA_1_390': 2119.0, 'init_ShelterA_1_393': 2129.0, 'init_ShelterA_2_394': 2131.0, 'newveh_ShelterA_2_305_61': 2134.0, 'newveh_ShelterA_1_338_71': 2136.0, 'init_ShelterA_2_396': 2139.0, 'newveh_ShelterA_2_304_60': 2141.0, 'newveh_ShelterA_2_301_59': 2149.0, 'newveh_ShelterA_2_299_58': 2155.0, 'init_ShelterA_1_372': 2158.0, 'newveh_ShelterA_2_311_66': 2162.0, 'newveh_ShelterA_2_392_110': 2186.0, 'newveh_ShelterA_1_360_82': 2189.0, 'newveh_ShelterA_2_395_111': 2192.0, 'newveh_ShelterA_1_365_85': 2194.0, 'newveh_ShelterA_2_309_65': 2197.0, 'newveh_ShelterA_1_375_94': 2200.0, 'newveh_ShelterA_2_303_64': 2206.0, 'newveh_ShelterA_2_312_67': 2212.0, 'newveh_ShelterA_2_326_68': 2218.0, 'newveh_ShelterA_2_328_69': 2224.0, 'newveh_ShelterA_2_330_70': 2232.0, 'newveh_ShelterA_2_327_72': 2237.0, 'newveh_ShelterA_2_331_74': 2241.0, 'newveh_ShelterA_2_329_73': 2286.0, 'newveh_ShelterA_1_386_105': 2289.0, 'newveh_ShelterA_2_337_77': 2294.0, 'newveh_ShelterA_2_334_76': 2299.0, 'newveh_ShelterA_2_332_75': 2305.0, 'newveh_ShelterA_2_366_84': 2312.0, 'newveh_ShelterA_2_343_78': 2318.0, 'newveh_ShelterA_2_351_86': 2326.0, 'newveh_ShelterA_2_371_93': 2335.0, 'newveh_ShelterA_2_353_83': 2343.0, 'newveh_ShelterA_2_359_91': 2352.0, 'newveh_ShelterA_2_358_90': 2360.0, 'newveh_ShelterA_2_355_89': 2368.0, 'newveh_ShelterA_2_354_88': 2376.0, 'newveh_ShelterA_2_352_87': 2384.0, 'newveh_ShelterA_2_376_95': 2393.0, 'newveh_ShelterA_2_374_96': 2401.0, 'newveh_ShelterA_2_378_97': 2410.0, 'newveh_ShelterA_2_377_98': 2419.0, 'newveh_ShelterA_2_385_101': 2427.0, 'newveh_ShelterA_2_384_100': 2437.0, 'newveh_ShelterA_2_382_99': 2447.0, 'newveh_ShelterA_2_387_102': 2456.0, 'newveh_ShelterA_2_389_104': 2466.0, 'newveh_ShelterA_2_388_103': 2475.0, 'newveh_ShelterA_2_399_108': 2482.0, 'newveh_ShelterA_2_398_107': 2487.0, 'newveh_ShelterA_2_397_106': 2491.0}
vehicle_abandant_time_by_pedestrianID_dict:{}
walking_distance_by_pedestrianID_dict:{}
route_change_time_by_vehID_dict:{'init_ShelterA_2_48': 360.0, 'init_ShelterA_1_43': 370.0, 'init_ShelterA_1_45': 370.0, 'init_ShelterA_1_49': 370.0, 'init_ShelterA_1_51': 370.0, 'init_ShelterA_1_53': 370.0, 'init_ShelterA_1_54': 370.0, 'init_ShelterA_1_52': 380.0, 'init_ShelterA_1_58': 410.0, 'init_ShelterA_1_57': 420.0, 'init_ShelterA_2_59': 420.0, 'init_ShelterA_1_56': 430.0, 'init_ShelterA_1_60': 430.0, 'init_ShelterA_1_62': 430.0, 'init_ShelterA_2_63': 430.0, 'init_ShelterA_1_61': 440.0, 'init_ShelterA_1_64': 440.0, 'init_ShelterA_1_67': 460.0, 'init_ShelterA_1_69': 460.0, 'init_ShelterA_1_70': 460.0, 'init_ShelterA_1_72': 460.0, 'init_ShelterA_1_68': 470.0, 'init_ShelterA_1_77': 500.0, 'init_ShelterA_1_71': 510.0, 'init_ShelterA_1_73': 510.0, 'init_ShelterA_2_81': 510.0, 'init_ShelterA_2_82': 510.0, 'init_ShelterA_2_83': 510.0, 'init_ShelterA_1_78': 520.0, 'init_ShelterA_1_80': 520.0, 'init_ShelterA_1_84': 520.0, 'init_ShelterA_2_90': 520.0, 'init_ShelterA_1_85': 530.0, 'init_ShelterA_1_86': 530.0, 'init_ShelterA_2_104': 580.0, 'init_ShelterA_1_107': 610.0, 'init_ShelterA_1_96': 610.0, 'init_ShelterA_1_98': 610.0, 'init_ShelterA_1_105': 620.0, 'init_ShelterA_1_106': 640.0, 'init_ShelterA_1_108': 650.0, 'init_ShelterA_1_112': 680.0, 'init_ShelterA_1_114': 680.0, 'init_ShelterA_1_115': 680.0, 'init_ShelterA_2_120': 690.0, 'init_ShelterA_1_126': 700.0, 'init_ShelterA_1_121': 710.0, 'init_ShelterA_2_131': 760.0, 'init_ShelterA_2_136': 760.0, 'init_ShelterA_2_137': 760.0, 'init_ShelterA_1_130': 770.0, 'init_ShelterA_1_133': 770.0, 'init_ShelterA_1_138': 770.0, 'init_ShelterA_1_139': 770.0, 'init_ShelterA_1_140': 770.0, 'init_ShelterA_1_125': 780.0, 'init_ShelterA_1_143': 780.0, 'init_ShelterA_1_187': 810.0, 'init_ShelterA_1_188': 810.0, 'init_ShelterA_1_189': 810.0, 'init_ShelterA_1_190': 810.0, 'init_ShelterA_1_191': 810.0, 'init_ShelterA_1_192': 810.0, 'init_ShelterA_1_193': 810.0, 'init_ShelterA_1_194': 810.0, 'init_ShelterA_1_195': 810.0, 'init_ShelterA_1_196': 810.0, 'init_ShelterA_1_197': 810.0, 'init_ShelterA_1_198': 810.0, 'init_ShelterA_1_199': 810.0, 'init_ShelterA_1_200': 810.0, 'init_ShelterA_1_201': 810.0, 'init_ShelterA_1_202': 810.0, 'init_ShelterA_1_203': 810.0, 'init_ShelterA_1_204': 810.0, 'init_ShelterA_1_205': 810.0, 'init_ShelterA_1_206': 810.0, 'init_ShelterA_1_207': 810.0, 'init_ShelterA_1_208': 810.0, 'init_ShelterA_1_209': 810.0, 'init_ShelterA_1_210': 810.0, 'init_ShelterA_1_212': 810.0, 'init_ShelterA_1_213': 810.0, 'init_ShelterA_1_214': 810.0, 'init_ShelterA_2_211': 810.0, 'init_ShelterA_2_156': 860.0, 'init_ShelterA_2_158': 860.0, 'init_ShelterA_1_153': 870.0, 'init_ShelterA_1_154': 870.0, 'init_ShelterA_1_155': 870.0, 'init_ShelterA_1_157': 870.0, 'init_ShelterA_1_162': 870.0, 'init_ShelterA_1_152': 880.0, 'init_ShelterA_1_164': 910.0, 'init_ShelterA_1_160': 920.0, 'init_ShelterA_1_161': 920.0, 'init_ShelterA_1_163': 920.0, 'init_ShelterA_2_167': 920.0, 'init_ShelterA_1_166': 930.0, 'init_ShelterA_1_169': 930.0, 'init_ShelterA_1_170': 930.0, 'init_ShelterA_1_172': 930.0, 'init_ShelterA_1_165': 940.0, 'init_ShelterA_1_168': 940.0, 'init_ShelterA_1_171': 940.0, 'init_ShelterA_1_175': 940.0, 'init_ShelterA_1_177': 940.0, 'init_ShelterA_2_176': 940.0, 'init_ShelterA_2_234': 970.0, 'init_ShelterA_1_222': 980.0, 'init_ShelterA_1_224': 980.0, 'init_ShelterA_1_225': 980.0, 'init_ShelterA_1_226': 980.0, 'init_ShelterA_1_235': 980.0, 'init_ShelterA_1_237': 980.0, 'init_ShelterA_1_238': 980.0, 'init_ShelterA_2_236': 980.0, 'init_ShelterA_1_173': 1000.0, 'init_ShelterA_1_180': 1020.0, 'init_ShelterA_1_185': 1020.0, 'init_ShelterA_1_178': 1030.0, 'init_ShelterA_1_179': 1030.0, 'init_ShelterA_1_181': 1030.0, 'init_ShelterA_1_182': 1030.0, 'init_ShelterA_1_183': 1030.0, 'init_ShelterA_1_184': 1030.0, 'init_ShelterA_1_186': 1030.0, 'init_ShelterA_1_215': 1030.0, 'init_ShelterA_1_217': 1030.0, 'init_ShelterA_1_249': 1060.0, 'init_ShelterA_1_250': 1060.0, 'init_ShelterA_1_251': 1060.0, 'init_ShelterA_1_257': 1060.0, 'init_ShelterA_1_261': 1060.0, 'init_ShelterA_1_263': 1060.0, 'init_ShelterA_1_264': 1060.0, 'init_ShelterA_1_252': 1070.0, 'init_ShelterA_1_253': 1070.0, 'init_ShelterA_1_255': 1070.0, 'init_ShelterA_1_256': 1070.0, 'init_ShelterA_1_258': 1070.0, 'init_ShelterA_1_259': 1070.0, 'init_ShelterA_1_260': 1070.0, 'init_ShelterA_1_262': 1070.0, 'init_ShelterA_2_277': 1160.0, 'init_ShelterA_1_292': 1230.0, 'init_ShelterA_1_293': 1230.0, 'init_ShelterA_1_294': 1230.0, 'init_ShelterA_1_267': 1260.0, 'init_ShelterA_1_297': 1310.0, 'init_ShelterA_1_299': 1310.0, 'init_ShelterA_1_301': 1310.0, 'init_ShelterA_1_304': 1310.0, 'init_ShelterA_1_305': 1310.0, 'init_ShelterA_1_315': 1320.0, 'init_ShelterA_1_300': 1330.0, 'init_ShelterA_1_303': 1330.0, 'init_ShelterA_1_309': 1330.0, 'init_ShelterA_1_311': 1330.0, 'init_ShelterA_1_312': 1330.0, 'init_ShelterA_1_326': 1390.0, 'init_ShelterA_1_328': 1390.0, 'init_ShelterA_1_330': 1390.0, 'init_ShelterA_2_273': 1390.0, 'init_ShelterA_2_274': 1390.0, 'init_ShelterA_2_338': 1390.0, 'init_ShelterA_1_271': 1400.0, 'init_ShelterA_1_275': 1400.0, 'init_ShelterA_1_276': 1400.0, 'init_ShelterA_1_270': 1410.0, 'init_ShelterA_1_272': 1410.0, 'init_ShelterA_1_327': 1410.0, 'init_ShelterA_1_329': 1410.0, 'init_ShelterA_1_331': 1410.0, 'init_ShelterA_1_332': 1410.0, 'init_ShelterA_1_334': 1410.0, 'init_ShelterA_1_337': 1410.0, 'init_ShelterA_1_343': 1410.0, 'init_ShelterA_2_287': 1410.0, 'init_ShelterA_1_282': 1420.0, 'init_ShelterA_1_284': 1420.0, 'init_ShelterA_1_285': 1420.0, 'init_ShelterA_1_291': 1420.0, 'init_ShelterA_1_278': 1430.0, 'init_ShelterA_1_279': 1430.0, 'init_ShelterA_1_288': 1430.0, 'init_ShelterA_1_290': 1430.0, 'init_ShelterA_1_307': 1470.0, 'init_ShelterA_2_360': 1470.0, 'init_ShelterA_1_317': 1480.0, 'init_ShelterA_1_353': 1480.0, 'init_ShelterA_1_366': 1480.0, 'init_ShelterA_2_365': 1480.0, 'init_ShelterA_1_351': 1490.0, 'init_ShelterA_1_352': 1490.0, 'init_ShelterA_1_354': 1490.0, 'init_ShelterA_1_355': 1490.0, 'init_ShelterA_1_358': 1490.0, 'init_ShelterA_1_359': 1490.0, 'init_ShelterA_1_313': 1520.0, 'init_ShelterA_1_371': 1520.0, 'init_ShelterA_2_375': 1530.0, 'init_ShelterA_1_320': 1550.0, 'init_ShelterA_1_376': 1560.0, 'init_ShelterA_1_374': 1570.0, 'init_ShelterA_1_378': 1570.0, 'init_ShelterA_1_377': 1580.0, 'init_ShelterA_1_382': 1580.0, 'init_ShelterA_1_384': 1580.0, 'init_ShelterA_1_385': 1580.0, 'init_ShelterA_1_387': 1580.0, 'init_ShelterA_1_388': 1580.0, 'init_ShelterA_1_389': 1580.0, 'init_ShelterA_2_386': 1580.0, 'init_ShelterA_1_318': 1590.0, 'init_ShelterA_1_321': 1590.0, 'init_ShelterA_1_308': 1600.0, 'init_ShelterA_1_316': 1600.0, 'init_ShelterA_1_296': 1610.0, 'init_ShelterA_1_306': 1610.0, 'init_ShelterA_1_314': 1610.0, 'init_ShelterA_1_397': 1650.0, 'init_ShelterA_1_398': 1650.0, 'init_ShelterA_1_399': 1650.0, 'init_ShelterA_1_391': 1780.0, 'init_ShelterA_2_394': 1850.0, 'init_ShelterA_2_396': 1850.0, 'init_ShelterA_1_392': 1860.0, 'init_ShelterA_1_395': 1870.0, 'init_ShelterA_1_372': 1900.0}
pedestrian_count:0
route_changed_vehicle_count:230
route_change_event_count:230
rate_vehicle_abandonment:0.00%
wrong_way_driving_count:0
vehicle_abandonment_count:0
normalcy_bias_route_change_count:147
majority_bias_route_change_count:83
lane_changed_vehicle_count:0
info_obtained_lanechange_count:0
elapsed_time_lanechange_count:0
majority_bias_lanechange_count:0

=== Job Result ===
end=2026-07-13T01:23:23+0900
elapsed_seconds=501
exit_code=0
status=SUCCESS
