=== Job Info ===
job_name=va_s10_e1.0_v1.0_r44
host=schubert
pid=132329
scenario=10
early_rate=1.0
v2v_rate=1.0
run_id=44
config=/home/katagi/vehicle-assistant-system/scenarios/JIP/configs/config_scenario_10.toml
output_dir=/home/katagi/vehicle-assistant-system/schubert_logs/va_s10_e1.0_v1.0_r44
start=2026-07-13T02:56:48+0900
python_version=Python 3.12.3
sumo_version=Eclipse SUMO sumo Version v1_23_1+0435-630512a

=== Command ===
cd /home/katagi/vehicle-assistant-system/schubert_logs/va_s10_e1.0_v1.0_r44
PYTHONPATH=/home/katagi/vehicle-assistant-system:/home/katagi/tmp/sumo/tools:/home/katagi/local/sumo/tools:/home/katagi/tmp/sumo/tools:/home/katagi/local/sumo/tools:/home/katagi/tmp/sumo/tools:/home/katagi/local/sumo/tools: python3 -W ignore::UserWarning -m scenarios.JIP.1-1-4.simulation.runner_simulator --nogui /home/katagi/vehicle-assistant-system/scenarios/JIP/configs/config_scenario_10.toml 1.0 1.0
simulation_pid=132349
Step #0.00 (0ms ?*RT. ?UPS, TraCI: 334ms, vehicles TOT 1 ACT 1 BUF 0)                     Step #100.00 (0ms ?*RT. ?UPS, TraCI: 18ms, vehicles TOT 26 ACT 26 BUF 0)                  Step #200.00 (0ms ?*RT. ?UPS, TraCI: 36ms, vehicles TOT 51 ACT 51 BUF 0)                  Step #300.00 (1ms ~= 1000.00*RT, ~77000.00UPS, TraCI: 54ms, vehicles TOT 77 ACT 77 BUF 0) Step #400.00 (0ms ?*RT. ?UPS, TraCI: 1611ms, vehicles TOT 104 ACT 104 BUF 0)              Step #500.00 (1ms ~= 1000.00*RT, ~131000.00UPS, TraCI: 1465ms, vehicles TOT 131 ACT 131 BUStep #600.00 (1ms ~= 1000.00*RT, ~158000.00UPS, TraCI: 1174ms, vehicles TOT 158 ACT 158 BUStep #700.00 (1ms ~= 1000.00*RT, ~179000.00UPS, TraCI: 1477ms, vehicles TOT 192 ACT 179 BUStep #800.00 (1ms ~= 1000.00*RT, ~200000.00UPS, TraCI: 1576ms, vehicles TOT 225 ACT 200 BUStep #900.00 (0ms ?*RT. ?UPS, TraCI: 1013ms, vehicles TOT 247 ACT 209 BUF 35)             Step #1000.00 (0ms ?*RT. ?UPS, TraCI: 1420ms, vehicles TOT 278 ACT 228 BUF 46)            Step #1100.00 (0ms ?*RT. ?UPS, TraCI: 1651ms, vehicles TOT 312 ACT 262 BUF 42)            Step #1200.00 (1ms ~= 1000.00*RT, ~283000.00UPS, TraCI: 1856ms, vehicles TOT 348 ACT 283 BStep #1300.00 (0ms ?*RT. ?UPS, TraCI: 1225ms, vehicles TOT 379 ACT 298 BUF 70)            Step #1400.00 (1ms ~= 1000.00*RT, ~327000.00UPS, TraCI: 2364ms, vehicles TOT 411 ACT 327 BStep #1500.00 (1ms ~= 1000.00*RT, ~343000.00UPS, TraCI: 2411ms, vehicles TOT 443 ACT 343 BStep #1600.00 (1ms ~= 1000.00*RT, ~358000.00UPS, TraCI: 2473ms, vehicles TOT 467 ACT 358 BStep #1700.00 (1ms ~= 1000.00*RT, ~392000.00UPS, TraCI: 2175ms, vehicles TOT 504 ACT 392 BStep #1800.00 (0ms ?*RT. ?UPS, TraCI: 1181ms, vehicles TOT 518 ACT 400 BUF 0)             Step #1900.00 (1ms ~= 1000.00*RT, ~400000.00UPS, TraCI: 1040ms, vehicles TOT 520 ACT 400 BStep #2000.00 (0ms ?*RT. ?UPS, TraCI: 770ms, vehicles TOT 520 ACT 400 BUF 0)              Step #2100.00 (0ms ?*RT. ?UPS, TraCI: 474ms, vehicles TOT 520 ACT 400 BUF 0)              Step #2200.00 (1ms ~= 1000.00*RT, ~400000.00UPS, TraCI: 97ms, vehicles TOT 520 ACT 400 BUFStep #2300.00 (0ms ?*RT. ?UPS, TraCI: 94ms, vehicles TOT 520 ACT 400 BUF 0)               Step #2400.00 (0ms ?*RT. ?UPS, TraCI: 79ms, vehicles TOT 520 ACT 400 BUF 0)               Step #2500.00 (0ms ?*RT. ?UPS, TraCI: 75ms, vehicles TOT 520 ACT 400 BUF 0)               Step #2600.00 (0ms ?*RT. ?UPS, TraCI: 75ms, vehicles TOT 520 ACT 400 BUF 0)               Step #2700.00 (0ms ?*RT. ?UPS, TraCI: 77ms, vehicles TOT 520 ACT 400 BUF 0)               Step #2800.00 (0ms ?*RT. ?UPS, TraCI: 77ms, vehicles TOT 520 ACT 400 BUF 0)               Step #2900.00 (0ms ?*RT. ?UPS, TraCI: 78ms, vehicles TOT 520 ACT 400 BUF 0)               Step #3000.00 (0ms ?*RT. ?UPS, TraCI: 78ms, vehicles TOT 520 ACT 400 BUF 0)               
 Retrying in 1 seconds
出現数: {'A1': 365, 'A2': 35}
割合:
  Total: 400
  A1: 365 (91.25%)
  A2: 35 (8.75%)
  B1: 0 (0.00%)
  B2: 0 (0.00%)
mean elapsed_time: 529.675
OK all vehs arrived 
平均渋滞継続時間: 464.88秒
OK all vehicle abandonment were detected
271
129
===== Simlation Result Summary =====
avg_congestion_duration: 464.88 
arrival_time_by_vehID_dict:{'init_ShelterA_1_0': 223.0, 'init_ShelterA_1_1': 230.0, 'init_ShelterA_1_2': 236.0, 'init_ShelterA_1_3': 243.0, 'init_ShelterA_1_4': 248.0, 'init_ShelterA_1_5': 252.0, 'init_ShelterA_1_7': 281.0, 'init_ShelterA_1_8': 288.0, 'init_ShelterA_1_9': 293.0, 'init_ShelterA_1_10': 299.0, 'init_ShelterA_1_11': 304.0, 'init_ShelterA_1_12': 311.0, 'init_ShelterA_1_13': 317.0, 'init_ShelterA_2_6': 320.0, 'init_ShelterA_1_14': 324.0, 'init_ShelterA_1_15': 332.0, 'init_ShelterA_1_16': 340.0, 'init_ShelterA_1_17': 349.0, 'init_ShelterA_1_18': 358.0, 'init_ShelterA_1_19': 367.0, 'init_ShelterA_1_20': 376.0, 'init_ShelterA_1_21': 385.0, 'init_ShelterA_1_22': 394.0, 'init_ShelterA_1_23': 403.0, 'init_ShelterA_1_24': 413.0, 'init_ShelterA_1_25': 422.0, 'init_ShelterA_1_26': 432.0, 'init_ShelterA_1_28': 442.0, 'init_ShelterA_1_29': 451.0, 'init_ShelterA_1_30': 461.0, 'init_ShelterA_1_31': 471.0, 'init_ShelterA_1_32': 480.0, 'init_ShelterA_2_27': 485.0, 'init_ShelterA_1_33': 490.0, 'init_ShelterA_1_34': 500.0, 'init_ShelterA_2_36': 501.0, 'init_ShelterA_1_40': 503.0, 'init_ShelterA_1_35': 510.0, 'init_ShelterA_1_37': 519.0, 'init_ShelterA_1_38': 529.0, 'init_ShelterA_1_42': 536.0, 'init_ShelterA_1_39': 538.0, 'init_ShelterA_1_41': 547.0, 'init_ShelterA_2_43': 550.0, 'init_ShelterA_1_45': 560.0, 'init_ShelterA_2_48': 562.0, 'init_ShelterA_1_51': 572.0, 'init_ShelterA_1_52': 582.0, 'init_ShelterA_1_44': 586.0, 'init_ShelterA_1_46': 588.0, 'init_ShelterA_1_47': 591.0, 'init_ShelterA_1_53': 592.0, 'init_ShelterA_1_49': 594.0, 'init_ShelterA_1_50': 597.0, 'init_ShelterA_1_54': 601.0, 'init_ShelterA_1_55': 611.0, 'init_ShelterA_1_56': 620.0, 'init_ShelterA_2_57': 622.0, 'init_ShelterA_1_59': 633.0, 'init_ShelterA_1_58': 640.0, 'init_ShelterA_1_60': 641.0, 'init_ShelterA_1_61': 642.0, 'init_ShelterA_1_64': 647.0, 'init_ShelterA_1_65': 651.0, 'init_ShelterA_1_74': 656.0, 'init_ShelterA_1_77': 665.0, 'init_ShelterA_2_79': 667.0, 'init_ShelterA_1_62': 670.0, 'init_ShelterA_1_63': 672.0, 'init_ShelterA_1_66': 675.0, 'init_ShelterA_1_81': 675.0, 'init_ShelterA_1_67': 678.0, 'init_ShelterA_1_89': 679.0, 'init_ShelterA_1_68': 681.0, 'init_ShelterA_2_90': 682.0, 'init_ShelterA_1_69': 684.0, 'init_ShelterA_1_70': 687.0, 'init_ShelterA_1_71': 690.0, 'init_ShelterA_1_72': 693.0, 'init_ShelterA_1_73': 696.0, 'init_ShelterA_1_75': 722.0, 'init_ShelterA_2_96': 731.0, 'init_ShelterA_1_76': 741.0, 'init_ShelterA_1_78': 743.0, 'init_ShelterA_1_80': 746.0, 'init_ShelterA_1_82': 749.0, 'init_ShelterA_2_103': 750.0, 'init_ShelterA_1_83': 752.0, 'init_ShelterA_1_84': 755.0, 'init_ShelterA_1_85': 757.0, 'init_ShelterA_1_86': 760.0, 'init_ShelterA_1_87': 767.0, 'init_ShelterA_1_105': 769.0, 'init_ShelterA_1_88': 769.0, 'init_ShelterA_1_91': 772.0, 'init_ShelterA_2_106': 772.0, 'init_ShelterA_1_107': 776.0, 'init_ShelterA_1_110': 825.0, 'init_ShelterA_1_92': 830.0, 'init_ShelterA_1_93': 832.0, 'init_ShelterA_1_111': 833.0, 'init_ShelterA_1_94': 834.0, 'init_ShelterA_1_112': 837.0, 'init_ShelterA_1_95': 838.0, 'init_ShelterA_1_97': 841.0, 'init_ShelterA_1_116': 842.0, 'init_ShelterA_1_98': 843.0, 'init_ShelterA_1_99': 846.0, 'init_ShelterA_1_100': 848.0, 'init_ShelterA_1_101': 851.0, 'init_ShelterA_1_121': 851.0, 'init_ShelterA_1_102': 862.0, 'init_ShelterA_1_104': 864.0, 'init_ShelterA_1_108': 866.0, 'init_ShelterA_1_109': 900.0, 'init_ShelterA_1_127': 924.0, 'init_ShelterA_1_113': 928.0, 'init_ShelterA_1_129': 929.0, 'init_ShelterA_1_114': 931.0, 'init_ShelterA_2_133': 931.0, 'init_ShelterA_1_115': 933.0, 'init_ShelterA_1_117': 935.0, 'init_ShelterA_1_118': 938.0, 'init_ShelterA_1_119': 941.0, 'init_ShelterA_1_120': 949.0, 'init_ShelterA_1_141': 950.0, 'init_ShelterA_1_122': 951.0, 'init_ShelterA_1_123': 953.0, 'init_ShelterA_1_124': 955.0, 'init_ShelterA_1_125': 958.0, 'init_ShelterA_2_144': 994.0, 'init_ShelterA_1_126': 999.0, 'init_ShelterA_1_128': 1000.0, 'init_ShelterA_1_130': 1002.0, 'init_ShelterA_1_131': 1005.0, 'init_ShelterA_1_147': 1011.0, 'init_ShelterA_1_132': 1020.0, 'init_ShelterA_1_158': 1020.0, 'init_ShelterA_1_134': 1027.0, 'init_ShelterA_1_135': 1029.0, 'init_ShelterA_1_159': 1029.0, 'init_ShelterA_1_136': 1031.0, 'init_ShelterA_1_137': 1034.0, 'init_ShelterA_1_160': 1035.0, 'init_ShelterA_1_138': 1036.0, 'init_ShelterA_1_161': 1040.0, 'init_ShelterA_1_139': 1043.0, 'init_ShelterA_1_140': 1046.0, 'init_ShelterA_1_163': 1046.0, 'init_ShelterA_1_142': 1048.0, 'init_ShelterA_1_164': 1053.0, 'newveh_ShelterA_1_168_11': 1058.0, 'newveh_ShelterA_1_166_10': 1062.0, 'init_ShelterA_1_143': 1096.0, 'init_ShelterA_1_145': 1098.0, 'init_ShelterA_1_146': 1100.0, 'init_ShelterA_1_148': 1103.0, 'init_ShelterA_1_149': 1106.0, 'init_ShelterA_1_178': 1106.0, 'init_ShelterA_1_150': 1108.0, 'init_ShelterA_1_179': 1130.0, 'init_ShelterA_1_180': 1137.0, 'newveh_ShelterA_2_151_0': 1137.0, 'init_ShelterA_1_181': 1142.0, 'newveh_ShelterA_2_167_9': 1142.0, 'init_ShelterA_1_184': 1149.0, 'init_ShelterA_1_185': 1153.0, 'newveh_ShelterA_1_174_12': 1158.0, 'init_ShelterA_1_186': 1182.0, 'init_ShelterA_1_187': 1187.0, 'init_ShelterA_1_188': 1198.0, 'newveh_ShelterA_2_165_8': 1198.0, 'init_ShelterA_1_189': 1205.0, 'init_ShelterA_1_191': 1211.0, 'newveh_ShelterA_2_162_7': 1214.0, 'init_ShelterA_1_192': 1217.0, 'newveh_ShelterA_2_157_6': 1221.0, 'init_ShelterA_1_193': 1222.0, 'init_ShelterA_1_194': 1226.0, 'newveh_ShelterA_2_156_5': 1226.0, 'newveh_ShelterA_2_155_4': 1232.0, 'newveh_ShelterA_2_154_3': 1238.0, 'newveh_ShelterA_2_153_2': 1246.0, 'newveh_ShelterA_2_152_1': 1250.0, 'init_ShelterA_1_170': 1253.0, 'init_ShelterA_1_200': 1276.0, 'init_ShelterA_1_202': 1283.0, 'newveh_ShelterA_1_197_22': 1290.0, 'init_ShelterA_1_210': 1296.0, 'init_ShelterA_1_211': 1302.0, 'newveh_ShelterA_2_176_13': 1308.0, 'init_ShelterA_1_212': 1309.0, 'init_ShelterA_1_190': 1310.0, 'init_ShelterA_1_213': 1313.0, 'init_ShelterA_1_214': 1318.0, 'newveh_ShelterA_2_169_14': 1336.0, 'newveh_ShelterA_2_183_21': 1343.0, 'newveh_ShelterA_2_182_20': 1349.0, 'newveh_ShelterA_2_177_19': 1355.0, 'newveh_ShelterA_2_175_18': 1360.0, 'newveh_ShelterA_1_206_34': 1367.0, 'newveh_ShelterA_2_173_17': 1368.0, 'init_ShelterA_1_218': 1373.0, 'newveh_ShelterA_2_172_16': 1373.0, 'newveh_ShelterA_2_171_15': 1377.0, 'init_ShelterA_1_219': 1378.0, 'newveh_ShelterA_2_201_24': 1384.0, 'init_ShelterA_1_220': 1385.0, 'newveh_ShelterA_2_196_23': 1388.0, 'init_ShelterA_1_221': 1391.0, 'init_ShelterA_1_223': 1395.0, 'newveh_ShelterA_2_204_28': 1396.0, 'init_ShelterA_2_239': 1397.0, 'newveh_ShelterA_2_203_27': 1416.0, 'newveh_ShelterA_2_198_26': 1423.0, 'newveh_ShelterA_2_195_25': 1432.0, 'newveh_ShelterA_2_205_29': 1436.0, 'newveh_ShelterA_2_209_33': 1440.0, 'init_ShelterA_2_242': 1445.0, 'init_ShelterA_2_246': 1451.0, 'newveh_ShelterA_2_208_32': 1470.0, 'init_ShelterA_2_255': 1474.0, 'newveh_ShelterA_2_207_31': 1479.0, 'newveh_ShelterA_2_199_30': 1485.0, 'init_ShelterA_1_222': 1488.0, 'init_ShelterA_1_224': 1490.0, 'init_ShelterA_1_258': 1490.0, 'newveh_ShelterA_2_217_36': 1498.0, 'newveh_ShelterA_2_216_35': 1508.0, 'newveh_ShelterA_2_215_37': 1514.0, 'init_ShelterA_1_238': 1516.0, 'init_ShelterA_1_240': 1518.0, 'newveh_ShelterA_2_225_64': 1525.0, 'init_ShelterA_1_241': 1527.0, 'init_ShelterA_1_243': 1530.0, 'init_ShelterA_1_244': 1544.0, 'init_ShelterA_1_259': 1547.0, 'init_ShelterA_1_262': 1552.0, 'init_ShelterA_1_245': 1556.0, 'init_ShelterA_1_247': 1558.0, 'init_ShelterA_1_248': 1560.0, 'init_ShelterA_1_266': 1567.0, 'init_ShelterA_1_249': 1573.0, 'init_ShelterA_1_270': 1573.0, 'init_ShelterA_1_250': 1574.0, 'init_ShelterA_1_251': 1576.0, 'init_ShelterA_1_252': 1578.0, 'init_ShelterA_1_253': 1581.0, 'init_ShelterA_1_254': 1587.0, 'init_ShelterA_1_256': 1589.0, 'newveh_ShelterA_2_261_80': 1616.0, 'newveh_ShelterA_2_260_79': 1622.0, 'newveh_ShelterA_2_257_78': 1626.0, 'init_ShelterA_1_263': 1636.0, 'init_ShelterA_1_282': 1642.0, 'init_ShelterA_1_283': 1649.0, 'init_ShelterA_1_284': 1654.0, 'init_ShelterA_1_264': 1655.0, 'init_ShelterA_1_285': 1660.0, 'init_ShelterA_1_286': 1665.0, 'init_ShelterA_1_287': 1673.0, 'newveh_ShelterA_2_226_38': 1674.0, 'init_ShelterA_1_288': 1679.0, 'newveh_ShelterA_2_229_40': 1680.0, 'init_ShelterA_2_290': 1681.0, 'newveh_ShelterA_2_227_41': 1684.0, 'init_ShelterA_1_293': 1690.0, 'newveh_ShelterA_2_228_39': 1694.0, 'init_ShelterA_1_265': 1696.0, 'init_ShelterA_1_296': 1698.0, 'newveh_ShelterA_2_230_42': 1704.0, 'init_ShelterA_1_301': 1705.0, 'init_ShelterA_1_303': 1709.0, 'newveh_ShelterA_2_231_43': 1711.0, 'init_ShelterA_1_305': 1713.0, 'newveh_ShelterA_2_233_45': 1717.0, 'init_ShelterA_1_311': 1722.0, 'newveh_ShelterA_2_232_44': 1722.0, 'newveh_ShelterA_2_235_47': 1728.0, 'init_ShelterA_1_312': 1731.0, 'newveh_ShelterA_2_289_97': 1733.0, 'newveh_ShelterA_2_304_98': 1738.0, 'init_ShelterA_1_313': 1743.0, 'newveh_ShelterA_2_234_46': 1746.0, 'init_ShelterA_1_314': 1749.0, 'newveh_ShelterA_2_236_48': 1751.0, 'init_ShelterA_1_315': 1755.0, 'newveh_ShelterA_2_237_49': 1756.0, 'init_ShelterA_1_299': 1758.0, 'init_ShelterA_1_316': 1762.0, 'newveh_ShelterA_1_279_61': 1766.0, 'newveh_ShelterA_1_277_60': 1770.0, 'newveh_ShelterA_1_281_63': 1814.0, 'init_ShelterA_1_321': 1821.0, 'init_ShelterA_1_324': 1827.0, 'newveh_ShelterA_2_267_50': 1830.0, 'newveh_ShelterA_2_272_51': 1836.0, 'newveh_ShelterA_2_274_53': 1841.0, 'newveh_ShelterA_2_273_52': 1845.0, 'newveh_ShelterA_1_306_67': 1846.0, 'newveh_ShelterA_1_300_66': 1851.0, 'newveh_ShelterA_2_275_54': 1863.0, 'newveh_ShelterA_2_268_55': 1869.0, 'newveh_ShelterA_2_278_59': 1873.0, 'newveh_ShelterA_2_276_58': 1882.0, 'newveh_ShelterA_2_271_57': 1886.0, 'init_ShelterA_2_345': 1893.0, 'init_ShelterA_1_346': 1914.0, 'newveh_ShelterA_2_280_62': 1924.0, 'init_ShelterA_1_348': 1932.0, 'init_ShelterA_1_349': 1937.0, 'newveh_ShelterA_2_269_56': 1946.0, 'init_ShelterA_1_351': 1948.0, 'init_ShelterA_1_320': 1949.0, 'init_ShelterA_1_322': 1951.0, 'init_ShelterA_1_323': 1953.0, 'init_ShelterA_1_325': 1955.0, 'init_ShelterA_1_326': 1957.0, 'init_ShelterA_1_327': 1959.0, 'init_ShelterA_1_328': 1962.0, 'newveh_ShelterA_2_294_65': 1971.0, 'newveh_ShelterA_2_291_68': 1977.0, 'init_ShelterA_1_342': 1979.0, 'init_ShelterA_2_352': 1980.0, 'newveh_ShelterA_2_344_108': 1984.0, 'init_ShelterA_1_343': 2000.0, 'init_ShelterA_1_347': 2002.0, 'newveh_ShelterA_1_319_83': 2013.0, 'init_ShelterA_1_374': 2018.0, 'newveh_ShelterA_2_292_69': 2021.0, 'newveh_ShelterA_2_309_76': 2030.0, 'newveh_ShelterA_2_308_75': 2038.0, 'init_ShelterA_1_379': 2039.0, 'newveh_ShelterA_2_307_74': 2043.0, 'newveh_ShelterA_2_297_71': 2049.0, 'newveh_ShelterA_2_295_70': 2054.0, 'newveh_ShelterA_2_302_73': 2062.0, 'newveh_ShelterA_2_298_72': 2067.0, 'newveh_ShelterA_2_310_77': 2071.0, 'init_ShelterA_1_350': 2074.0, 'init_ShelterA_2_383': 2075.0, 'init_ShelterA_1_384': 2091.0, 'newveh_ShelterA_2_354_111': 2093.0, 'init_ShelterA_1_385': 2098.0, 'newveh_ShelterA_2_353_110': 2100.0, 'init_ShelterA_2_386': 2101.0, 'newveh_ShelterA_2_359_114': 2106.0, 'init_ShelterA_1_389': 2108.0, 'newveh_ShelterA_2_357_113': 2112.0, 'init_ShelterA_1_391': 2114.0, 'newveh_ShelterA_2_355_112': 2118.0, 'init_ShelterA_1_394': 2121.0, 'newveh_ShelterA_2_381_116': 2125.0, 'init_ShelterA_1_396': 2129.0, 'newveh_ShelterA_2_380_115': 2133.0, 'init_ShelterA_1_397': 2135.0, 'init_ShelterA_1_398': 2140.0, 'newveh_ShelterA_1_358_99': 2144.0, 'newveh_ShelterA_2_382_117': 2154.0, 'init_ShelterA_1_356': 2156.0, 'init_ShelterA_1_360': 2158.0, 'init_ShelterA_1_361': 2160.0, 'init_ShelterA_1_362': 2162.0, 'init_ShelterA_1_363': 2164.0, 'init_ShelterA_1_364': 2166.0, 'init_ShelterA_1_365': 2169.0, 'newveh_ShelterA_2_317_81': 2179.0, 'newveh_ShelterA_2_318_82': 2198.0, 'init_ShelterA_1_375': 2200.0, 'init_ShelterA_1_376': 2203.0, 'init_ShelterA_1_377': 2205.0, 'init_ShelterA_1_378': 2207.0, 'newveh_ShelterA_2_395_118': 2215.0, 'newveh_ShelterA_2_399_119': 2232.0, 'init_ShelterA_1_387': 2234.0, 'init_ShelterA_1_388': 2236.0, 'init_ShelterA_1_390': 2238.0, 'init_ShelterA_1_392': 2241.0, 'newveh_ShelterA_2_329_84': 2247.0, 'newveh_ShelterA_2_366_100': 2251.0, 'newveh_ShelterA_1_393_109': 2274.0, 'newveh_ShelterA_2_341_96': 2283.0, 'newveh_ShelterA_2_340_95': 2290.0, 'newveh_ShelterA_2_339_94': 2296.0, 'newveh_ShelterA_2_338_93': 2302.0, 'newveh_ShelterA_2_337_92': 2308.0, 'newveh_ShelterA_2_336_91': 2315.0, 'newveh_ShelterA_2_335_90': 2322.0, 'newveh_ShelterA_2_334_89': 2330.0, 'newveh_ShelterA_2_333_88': 2339.0, 'newveh_ShelterA_2_332_87': 2347.0, 'newveh_ShelterA_2_331_86': 2356.0, 'newveh_ShelterA_2_330_85': 2366.0, 'newveh_ShelterA_2_367_101': 2374.0, 'newveh_ShelterA_2_368_102': 2380.0, 'newveh_ShelterA_2_369_103': 2389.0, 'newveh_ShelterA_2_370_104': 2396.0, 'newveh_ShelterA_2_371_105': 2404.0, 'newveh_ShelterA_2_372_106': 2408.0, 'newveh_ShelterA_2_373_107': 2413.0}
vehicle_abandant_time_by_pedestrianID_dict:{}
walking_distance_by_pedestrianID_dict:{}
route_change_time_by_vehID_dict:{'init_ShelterA_2_43': 340.0, 'init_ShelterA_1_40': 350.0, 'init_ShelterA_1_44': 350.0, 'init_ShelterA_1_42': 360.0, 'init_ShelterA_2_48': 360.0, 'init_ShelterA_1_47': 370.0, 'init_ShelterA_1_49': 370.0, 'init_ShelterA_1_50': 370.0, 'init_ShelterA_1_46': 380.0, 'init_ShelterA_2_57': 420.0, 'init_ShelterA_1_58': 430.0, 'init_ShelterA_1_61': 430.0, 'init_ShelterA_1_67': 460.0, 'init_ShelterA_1_70': 460.0, 'init_ShelterA_1_71': 460.0, 'init_ShelterA_1_63': 470.0, 'init_ShelterA_1_68': 470.0, 'init_ShelterA_1_69': 470.0, 'init_ShelterA_1_62': 480.0, 'init_ShelterA_1_66': 480.0, 'init_ShelterA_1_72': 490.0, 'init_ShelterA_1_73': 490.0, 'init_ShelterA_1_75': 500.0, 'init_ShelterA_1_76': 500.0, 'init_ShelterA_1_78': 520.0, 'init_ShelterA_1_80': 520.0, 'init_ShelterA_2_79': 520.0, 'init_ShelterA_2_90': 530.0, 'init_ShelterA_1_84': 550.0, 'init_ShelterA_1_85': 550.0, 'init_ShelterA_1_86': 550.0, 'init_ShelterA_1_87': 550.0, 'init_ShelterA_1_88': 550.0, 'init_ShelterA_1_82': 560.0, 'init_ShelterA_1_83': 560.0, 'init_ShelterA_1_91': 580.0, 'init_ShelterA_1_92': 590.0, 'init_ShelterA_1_94': 590.0, 'init_ShelterA_1_95': 590.0, 'init_ShelterA_1_97': 590.0, 'init_ShelterA_1_99': 590.0, 'init_ShelterA_2_96': 590.0, 'init_ShelterA_1_100': 600.0, 'init_ShelterA_1_101': 600.0, 'init_ShelterA_1_104': 600.0, 'init_ShelterA_1_93': 600.0, 'init_ShelterA_2_103': 600.0, 'init_ShelterA_2_106': 600.0, 'init_ShelterA_1_102': 610.0, 'init_ShelterA_1_98': 610.0, 'init_ShelterA_1_151': 640.0, 'init_ShelterA_1_152': 640.0, 'init_ShelterA_1_153': 640.0, 'init_ShelterA_1_154': 640.0, 'init_ShelterA_1_155': 640.0, 'init_ShelterA_1_156': 640.0, 'init_ShelterA_1_157': 640.0, 'init_ShelterA_1_162': 640.0, 'init_ShelterA_1_165': 640.0, 'init_ShelterA_1_167': 640.0, 'init_ShelterA_2_166': 640.0, 'init_ShelterA_2_168': 640.0, 'init_ShelterA_1_109': 660.0, 'init_ShelterA_1_108': 670.0, 'init_ShelterA_1_113': 680.0, 'init_ShelterA_1_115': 680.0, 'init_ShelterA_1_117': 680.0, 'init_ShelterA_1_119': 680.0, 'init_ShelterA_1_120': 680.0, 'init_ShelterA_1_122': 680.0, 'init_ShelterA_1_123': 680.0, 'init_ShelterA_1_124': 680.0, 'init_ShelterA_1_114': 690.0, 'init_ShelterA_1_118': 690.0, 'init_ShelterA_1_170': 690.0, 'init_ShelterA_2_174': 700.0, 'init_ShelterA_1_176': 710.0, 'init_ShelterA_1_169': 730.0, 'init_ShelterA_1_171': 730.0, 'init_ShelterA_1_172': 730.0, 'init_ShelterA_1_173': 730.0, 'init_ShelterA_1_175': 730.0, 'init_ShelterA_1_177': 730.0, 'init_ShelterA_1_182': 730.0, 'init_ShelterA_1_183': 730.0, 'init_ShelterA_2_133': 760.0, 'init_ShelterA_1_134': 770.0, 'init_ShelterA_1_136': 770.0, 'init_ShelterA_1_138': 770.0, 'init_ShelterA_1_139': 770.0, 'init_ShelterA_1_142': 770.0, 'init_ShelterA_1_128': 780.0, 'init_ShelterA_1_130': 780.0, 'init_ShelterA_1_131': 780.0, 'init_ShelterA_1_132': 780.0, 'init_ShelterA_1_135': 780.0, 'init_ShelterA_1_137': 780.0, 'init_ShelterA_1_143': 780.0, 'init_ShelterA_2_144': 780.0, 'init_ShelterA_1_125': 790.0, 'init_ShelterA_1_126': 790.0, 'init_ShelterA_2_197': 790.0, 'init_ShelterA_1_196': 800.0, 'init_ShelterA_1_201': 800.0, 'init_ShelterA_1_195': 810.0, 'init_ShelterA_1_198': 810.0, 'init_ShelterA_1_203': 810.0, 'init_ShelterA_1_204': 810.0, 'init_ShelterA_1_205': 810.0, 'init_ShelterA_1_199': 820.0, 'init_ShelterA_1_207': 820.0, 'init_ShelterA_1_208': 820.0, 'init_ShelterA_1_209': 820.0, 'init_ShelterA_2_206': 820.0, 'init_ShelterA_1_146': 830.0, 'init_ShelterA_1_148': 840.0, 'init_ShelterA_1_150': 840.0, 'init_ShelterA_1_149': 850.0, 'init_ShelterA_1_145': 860.0, 'init_ShelterA_1_216': 860.0, 'init_ShelterA_1_217': 860.0, 'init_ShelterA_1_140': 870.0, 'init_ShelterA_1_215': 880.0, 'init_ShelterA_1_226': 970.0, 'init_ShelterA_1_228': 970.0, 'init_ShelterA_1_229': 970.0, 'init_ShelterA_1_227': 990.0, 'init_ShelterA_1_230': 990.0, 'init_ShelterA_1_231': 990.0, 'init_ShelterA_1_232': 990.0, 'init_ShelterA_1_233': 990.0, 'init_ShelterA_1_234': 990.0, 'init_ShelterA_1_235': 990.0, 'init_ShelterA_1_236': 990.0, 'init_ShelterA_1_237': 990.0, 'init_ShelterA_1_190': 1090.0, 'init_ShelterA_1_267': 1130.0, 'init_ShelterA_1_272': 1140.0, 'init_ShelterA_1_273': 1140.0, 'init_ShelterA_1_274': 1140.0, 'init_ShelterA_1_275': 1140.0, 'init_ShelterA_1_268': 1150.0, 'init_ShelterA_1_269': 1150.0, 'init_ShelterA_1_271': 1150.0, 'init_ShelterA_1_276': 1150.0, 'init_ShelterA_1_278': 1150.0, 'init_ShelterA_2_277': 1150.0, 'init_ShelterA_2_279': 1150.0, 'init_ShelterA_1_280': 1160.0, 'init_ShelterA_2_281': 1160.0, 'init_ShelterA_2_239': 1170.0, 'init_ShelterA_1_222': 1180.0, 'init_ShelterA_1_225': 1180.0, 'init_ShelterA_2_242': 1180.0, 'init_ShelterA_1_240': 1190.0, 'init_ShelterA_1_241': 1190.0, 'init_ShelterA_1_243': 1190.0, 'init_ShelterA_1_244': 1190.0, 'init_ShelterA_1_245': 1190.0, 'init_ShelterA_2_246': 1190.0, 'init_ShelterA_1_238': 1200.0, 'init_ShelterA_1_224': 1210.0, 'init_ShelterA_1_252': 1220.0, 'init_ShelterA_1_253': 1220.0, 'init_ShelterA_1_254': 1220.0, 'init_ShelterA_1_256': 1220.0, 'init_ShelterA_1_294': 1220.0, 'init_ShelterA_2_300': 1220.0, 'init_ShelterA_2_306': 1230.0, 'init_ShelterA_1_247': 1240.0, 'init_ShelterA_1_291': 1240.0, 'init_ShelterA_1_292': 1240.0, 'init_ShelterA_1_295': 1240.0, 'init_ShelterA_1_297': 1240.0, 'init_ShelterA_1_298': 1240.0, 'init_ShelterA_1_302': 1240.0, 'init_ShelterA_1_307': 1240.0, 'init_ShelterA_1_308': 1240.0, 'init_ShelterA_1_309': 1240.0, 'init_ShelterA_1_310': 1240.0, 'init_ShelterA_1_248': 1250.0, 'init_ShelterA_1_249': 1250.0, 'init_ShelterA_1_250': 1250.0, 'init_ShelterA_2_255': 1260.0, 'init_ShelterA_1_257': 1270.0, 'init_ShelterA_1_260': 1270.0, 'init_ShelterA_1_261': 1270.0, 'init_ShelterA_1_264': 1280.0, 'init_ShelterA_1_263': 1290.0, 'init_ShelterA_1_317': 1320.0, 'init_ShelterA_1_318': 1320.0, 'init_ShelterA_2_319': 1320.0, 'init_ShelterA_1_265': 1350.0, 'init_ShelterA_1_251': 1360.0, 'init_ShelterA_1_329': 1410.0, 'init_ShelterA_1_330': 1410.0, 'init_ShelterA_1_331': 1410.0, 'init_ShelterA_1_332': 1410.0, 'init_ShelterA_1_333': 1410.0, 'init_ShelterA_1_334': 1410.0, 'init_ShelterA_1_335': 1410.0, 'init_ShelterA_1_336': 1410.0, 'init_ShelterA_1_337': 1410.0, 'init_ShelterA_1_338': 1410.0, 'init_ShelterA_1_339': 1410.0, 'init_ShelterA_1_340': 1410.0, 'init_ShelterA_1_341': 1410.0, 'init_ShelterA_2_290': 1430.0, 'init_ShelterA_1_289': 1440.0, 'init_ShelterA_1_299': 1450.0, 'init_ShelterA_1_304': 1450.0, 'init_ShelterA_2_358': 1500.0, 'init_ShelterA_1_366': 1560.0, 'init_ShelterA_1_367': 1560.0, 'init_ShelterA_1_368': 1560.0, 'init_ShelterA_1_369': 1560.0, 'init_ShelterA_1_370': 1560.0, 'init_ShelterA_1_371': 1560.0, 'init_ShelterA_1_372': 1560.0, 'init_ShelterA_1_373': 1560.0, 'init_ShelterA_1_344': 1600.0, 'init_ShelterA_2_345': 1610.0, 'init_ShelterA_2_393': 1670.0, 'init_ShelterA_1_353': 1700.0, 'init_ShelterA_1_354': 1700.0, 'init_ShelterA_2_352': 1700.0, 'init_ShelterA_1_355': 1710.0, 'init_ShelterA_1_357': 1710.0, 'init_ShelterA_1_359': 1710.0, 'init_ShelterA_1_323': 1720.0, 'init_ShelterA_1_328': 1720.0, 'init_ShelterA_1_322': 1730.0, 'init_ShelterA_1_325': 1730.0, 'init_ShelterA_1_326': 1730.0, 'init_ShelterA_1_327': 1730.0, 'init_ShelterA_1_342': 1730.0, 'init_ShelterA_1_343': 1730.0, 'init_ShelterA_1_347': 1730.0, 'init_ShelterA_1_360': 1730.0, 'init_ShelterA_1_361': 1730.0, 'init_ShelterA_1_362': 1730.0, 'init_ShelterA_1_363': 1730.0, 'init_ShelterA_1_320': 1740.0, 'init_ShelterA_1_375': 1740.0, 'init_ShelterA_1_376': 1740.0, 'init_ShelterA_1_377': 1740.0, 'init_ShelterA_1_378': 1740.0, 'init_ShelterA_1_365': 1770.0, 'init_ShelterA_1_364': 1780.0, 'init_ShelterA_1_380': 1780.0, 'init_ShelterA_1_381': 1780.0, 'init_ShelterA_1_356': 1790.0, 'init_ShelterA_1_382': 1790.0, 'init_ShelterA_1_350': 1800.0, 'init_ShelterA_2_386': 1810.0, 'init_ShelterA_1_390': 1820.0, 'init_ShelterA_1_392': 1820.0, 'init_ShelterA_2_383': 1850.0, 'init_ShelterA_1_387': 1860.0, 'init_ShelterA_1_388': 1860.0, 'init_ShelterA_1_395': 1870.0, 'init_ShelterA_1_399': 1880.0}
pedestrian_count:0
route_changed_vehicle_count:262
route_change_event_count:262
rate_vehicle_abandonment:0.00%
wrong_way_driving_count:0
vehicle_abandonment_count:0
normalcy_bias_route_change_count:131
majority_bias_route_change_count:131
lane_changed_vehicle_count:0
info_obtained_lanechange_count:0
elapsed_time_lanechange_count:0
majority_bias_lanechange_count:0

=== Job Result ===
end=2026-07-13T03:04:17+0900
elapsed_seconds=449
exit_code=0
status=SUCCESS
