=== Job Info ===
job_name=va_s4_e1.0_v1.0_r7
host=schubert
pid=112598
scenario=4
early_rate=1.0
v2v_rate=1.0
run_id=7
config=/home/katagi/vehicle-assistant-system/scenarios/JIP/configs/config_scenario_4.toml
output_dir=/home/katagi/vehicle-assistant-system/schubert_logs/va_s4_e1.0_v1.0_r7
start=2026-07-13T01:14:23+0900
python_version=Python 3.12.3
sumo_version=Eclipse SUMO sumo Version v1_23_1+0435-630512a

=== Command ===
cd /home/katagi/vehicle-assistant-system/schubert_logs/va_s4_e1.0_v1.0_r7
PYTHONPATH=/home/katagi/vehicle-assistant-system:/home/katagi/tmp/sumo/tools:/home/katagi/local/sumo/tools:/home/katagi/tmp/sumo/tools:/home/katagi/local/sumo/tools:/home/katagi/tmp/sumo/tools:/home/katagi/local/sumo/tools: python3 -W ignore::UserWarning -m scenarios.JIP.1-1-4.simulation.runner_simulator --nogui /home/katagi/vehicle-assistant-system/scenarios/JIP/configs/config_scenario_4.toml 1.0 1.0
simulation_pid=112618
Step #0.00 (0ms ?*RT. ?UPS, TraCI: 332ms, vehicles TOT 1 ACT 1 BUF 0)                     Step #100.00 (1ms ~= 1000.00*RT, ~26000.00UPS, TraCI: 17ms, vehicles TOT 26 ACT 26 BUF 0) Step #200.00 (0ms ?*RT. ?UPS, TraCI: 40ms, vehicles TOT 51 ACT 51 BUF 0)                  Step #300.00 (0ms ?*RT. ?UPS, TraCI: 55ms, vehicles TOT 77 ACT 77 BUF 0)                  Step #400.00 (0ms ?*RT. ?UPS, TraCI: 1742ms, vehicles TOT 104 ACT 104 BUF 0)              Step #500.00 (1ms ~= 1000.00*RT, ~131000.00UPS, TraCI: 1671ms, vehicles TOT 131 ACT 131 BUStep #600.00 (0ms ?*RT. ?UPS, TraCI: 1838ms, vehicles TOT 158 ACT 158 BUF 0)              Step #700.00 (1ms ~= 1000.00*RT, ~186000.00UPS, TraCI: 1781ms, vehicles TOT 186 ACT 186 BUStep #800.00 (1ms ~= 1000.00*RT, ~211000.00UPS, TraCI: 1268ms, vehicles TOT 211 ACT 211 BUStep #900.00 (0ms ?*RT. ?UPS, TraCI: 1544ms, vehicles TOT 233 ACT 233 BUF 11)             Step #1000.00 (0ms ?*RT. ?UPS, TraCI: 2501ms, vehicles TOT 255 ACT 227 BUF 47)            Step #1100.00 (1ms ~= 1000.00*RT, ~266000.00UPS, TraCI: 2019ms, vehicles TOT 296 ACT 266 BStep #1200.00 (0ms ?*RT. ?UPS, TraCI: 2971ms, vehicles TOT 329 ACT 278 BUF 58)            Step #1300.00 (1ms ~= 1000.00*RT, ~297000.00UPS, TraCI: 1485ms, vehicles TOT 359 ACT 297 BStep #1400.00 (1ms ~= 1000.00*RT, ~323000.00UPS, TraCI: 2141ms, vehicles TOT 392 ACT 323 BStep #1500.00 (0ms ?*RT. ?UPS, TraCI: 1399ms, vehicles TOT 422 ACT 342 BUF 58)            Step #1600.00 (0ms ?*RT. ?UPS, TraCI: 2269ms, vehicles TOT 452 ACT 361 BUF 39)            Step #1700.00 (1ms ~= 1000.00*RT, ~382000.00UPS, TraCI: 2006ms, vehicles TOT 491 ACT 382 BStep #1800.00 (1ms ~= 1000.00*RT, ~400000.00UPS, TraCI: 1378ms, vehicles TOT 511 ACT 400 BStep #1900.00 (1ms ~= 1000.00*RT, ~400000.00UPS, TraCI: 1119ms, vehicles TOT 511 ACT 400 BStep #2000.00 (0ms ?*RT. ?UPS, TraCI: 881ms, vehicles TOT 511 ACT 400 BUF 0)              Step #2100.00 (1ms ~= 1000.00*RT, ~400000.00UPS, TraCI: 340ms, vehicles TOT 511 ACT 400 BUStep #2200.00 (0ms ?*RT. ?UPS, TraCI: 101ms, vehicles TOT 511 ACT 400 BUF 0)              Step #2300.00 (0ms ?*RT. ?UPS, TraCI: 100ms, vehicles TOT 511 ACT 400 BUF 0)              Step #2400.00 (0ms ?*RT. ?UPS, TraCI: 90ms, vehicles TOT 511 ACT 400 BUF 0)               Step #2500.00 (0ms ?*RT. ?UPS, TraCI: 77ms, vehicles TOT 511 ACT 400 BUF 0)               Step #2600.00 (1ms ~= 1000.00*RT, ~400000.00UPS, TraCI: 77ms, vehicles TOT 511 ACT 400 BUFStep #2700.00 (0ms ?*RT. ?UPS, TraCI: 78ms, vehicles TOT 511 ACT 400 BUF 0)               Step #2800.00 (0ms ?*RT. ?UPS, TraCI: 79ms, vehicles TOT 511 ACT 400 BUF 0)               Step #2900.00 (0ms ?*RT. ?UPS, TraCI: 76ms, vehicles TOT 511 ACT 400 BUF 0)               Step #3000.00 (0ms ?*RT. ?UPS, TraCI: 79ms, vehicles TOT 511 ACT 400 BUF 0)               
 Retrying in 1 seconds
出現数: {'A1': 363, 'A2': 37}
割合:
  Total: 400
  A1: 363 (90.75%)
  A2: 37 (9.25%)
  B1: 0 (0.00%)
  B2: 0 (0.00%)
mean elapsed_time: 559.9425
OK all vehs arrived 
平均渋滞継続時間: 444.72秒
OK all vehicle abandonment were detected
280
120
===== Simlation Result Summary =====
avg_congestion_duration: 444.72 
arrival_time_by_vehID_dict:{'init_ShelterA_1_0': 202.0, 'init_ShelterA_1_1': 210.0, 'init_ShelterA_1_2': 216.0, 'init_ShelterA_1_3': 223.0, 'init_ShelterA_1_4': 228.0, 'init_ShelterA_1_5': 233.0, 'init_ShelterA_1_7': 239.0, 'init_ShelterA_1_8': 280.0, 'init_ShelterA_1_9': 286.0, 'init_ShelterA_1_10': 294.0, 'init_ShelterA_1_11': 299.0, 'init_ShelterA_1_12': 305.0, 'init_ShelterA_1_13': 312.0, 'init_ShelterA_1_15': 319.0, 'init_ShelterA_2_6': 323.0, 'init_ShelterA_1_16': 326.0, 'init_ShelterA_1_17': 335.0, 'init_ShelterA_1_18': 344.0, 'init_ShelterA_1_19': 353.0, 'init_ShelterA_1_20': 361.0, 'init_ShelterA_1_21': 367.0, 'init_ShelterA_1_22': 374.0, 'init_ShelterA_1_23': 381.0, 'init_ShelterA_1_24': 387.0, 'init_ShelterA_1_26': 396.0, 'init_ShelterA_2_14': 403.0, 'init_ShelterA_1_27': 404.0, 'init_ShelterA_1_28': 413.0, 'init_ShelterA_1_29': 423.0, 'init_ShelterA_1_30': 432.0, 'init_ShelterA_1_31': 442.0, 'init_ShelterA_1_32': 451.0, 'init_ShelterA_1_33': 461.0, 'init_ShelterA_1_34': 471.0, 'init_ShelterA_2_25': 476.0, 'init_ShelterA_1_36': 481.0, 'init_ShelterA_1_37': 490.0, 'init_ShelterA_1_38': 500.0, 'init_ShelterA_1_39': 510.0, 'init_ShelterA_2_35': 513.0, 'init_ShelterA_1_40': 520.0, 'init_ShelterA_1_41': 529.0, 'init_ShelterA_1_42': 539.0, 'init_ShelterA_1_44': 546.0, 'init_ShelterA_1_43': 549.0, 'init_ShelterA_1_50': 553.0, 'init_ShelterA_1_45': 558.0, 'init_ShelterA_1_46': 568.0, 'init_ShelterA_1_47': 577.0, 'init_ShelterA_1_52': 581.0, 'init_ShelterA_1_53': 583.0, 'init_ShelterA_1_55': 586.0, 'init_ShelterA_1_48': 587.0, 'init_ShelterA_1_56': 589.0, 'init_ShelterA_1_58': 592.0, 'init_ShelterA_1_49': 596.0, 'init_ShelterA_1_51': 606.0, 'init_ShelterA_2_54': 608.0, 'init_ShelterA_2_57': 610.0, 'init_ShelterA_1_59': 615.0, 'init_ShelterA_1_60': 621.0, 'init_ShelterA_1_62': 631.0, 'init_ShelterA_1_61': 636.0, 'init_ShelterA_1_67': 638.0, 'init_ShelterA_1_63': 640.0, 'init_ShelterA_1_64': 650.0, 'init_ShelterA_1_65': 660.0, 'init_ShelterA_1_66': 669.0, 'init_ShelterA_1_68': 679.0, 'init_ShelterA_1_69': 688.0, 'init_ShelterA_1_70': 698.0, 'init_ShelterA_1_71': 707.0, 'init_ShelterA_1_81': 709.0, 'init_ShelterA_1_72': 717.0, 'init_ShelterA_1_73': 727.0, 'init_ShelterA_1_84': 733.0, 'init_ShelterA_1_74': 736.0, 'init_ShelterA_1_75': 746.0, 'init_ShelterA_1_76': 755.0, 'init_ShelterA_1_77': 765.0, 'init_ShelterA_1_78': 774.0, 'init_ShelterA_1_79': 784.0, 'init_ShelterA_1_93': 788.0, 'init_ShelterA_1_80': 793.0, 'init_ShelterA_1_82': 802.0, 'init_ShelterA_1_83': 812.0, 'init_ShelterA_1_85': 821.0, 'init_ShelterA_1_94': 821.0, 'init_ShelterA_1_96': 823.0, 'init_ShelterA_1_86': 830.0, 'init_ShelterA_2_87': 832.0, 'init_ShelterA_1_97': 834.0, 'init_ShelterA_1_103': 836.0, 'init_ShelterA_1_88': 843.0, 'init_ShelterA_1_105': 845.0, 'init_ShelterA_1_106': 847.0, 'init_ShelterA_1_107': 850.0, 'init_ShelterA_1_89': 852.0, 'init_ShelterA_1_90': 861.0, 'init_ShelterA_1_91': 871.0, 'init_ShelterA_1_92': 880.0, 'init_ShelterA_1_95': 890.0, 'init_ShelterA_1_98': 899.0, 'init_ShelterA_1_112': 908.0, 'init_ShelterA_1_99': 908.0, 'init_ShelterA_1_113': 910.0, 'init_ShelterA_1_115': 913.0, 'init_ShelterA_1_116': 916.0, 'init_ShelterA_1_100': 917.0, 'init_ShelterA_1_117': 925.0, 'init_ShelterA_1_101': 927.0, 'init_ShelterA_2_102': 929.0, 'init_ShelterA_2_104': 931.0, 'init_ShelterA_2_108': 933.0, 'init_ShelterA_1_118': 934.0, 'init_ShelterA_1_122': 936.0, 'init_ShelterA_1_124': 943.0, 'init_ShelterA_1_109': 944.0, 'init_ShelterA_1_110': 953.0, 'init_ShelterA_1_111': 963.0, 'init_ShelterA_1_114': 972.0, 'init_ShelterA_2_119': 974.0, 'init_ShelterA_1_120': 985.0, 'init_ShelterA_2_121': 987.0, 'init_ShelterA_2_123': 989.0, 'init_ShelterA_1_125': 1000.0, 'init_ShelterA_1_131': 1001.0, 'init_ShelterA_1_132': 1003.0, 'init_ShelterA_1_134': 1009.0, 'init_ShelterA_1_126': 1010.0, 'init_ShelterA_1_135': 1011.0, 'init_ShelterA_1_138': 1013.0, 'init_ShelterA_1_127': 1020.0, 'init_ShelterA_1_128': 1029.0, 'init_ShelterA_1_139': 1035.0, 'init_ShelterA_1_140': 1037.0, 'init_ShelterA_1_129': 1039.0, 'init_ShelterA_1_130': 1049.0, 'init_ShelterA_1_141': 1056.0, 'init_ShelterA_1_133': 1058.0, 'init_ShelterA_1_143': 1058.0, 'init_ShelterA_1_144': 1060.0, 'init_ShelterA_1_136': 1068.0, 'init_ShelterA_1_137': 1078.0, 'init_ShelterA_1_142': 1087.0, 'init_ShelterA_1_145': 1097.0, 'init_ShelterA_1_149': 1104.0, 'init_ShelterA_1_151': 1106.0, 'init_ShelterA_1_146': 1107.0, 'init_ShelterA_1_155': 1112.0, 'init_ShelterA_1_158': 1114.0, 'init_ShelterA_1_147': 1116.0, 'init_ShelterA_1_148': 1126.0, 'init_ShelterA_1_150': 1135.0, 'init_ShelterA_1_159': 1142.0, 'init_ShelterA_1_160': 1144.0, 'init_ShelterA_1_152': 1145.0, 'init_ShelterA_1_153': 1154.0, 'init_ShelterA_1_161': 1159.0, 'init_ShelterA_1_154': 1164.0, 'init_ShelterA_1_162': 1172.0, 'init_ShelterA_1_156': 1173.0, 'init_ShelterA_1_157': 1183.0, 'init_ShelterA_1_163': 1192.0, 'init_ShelterA_1_164': 1197.0, 'init_ShelterA_1_166': 1198.0, 'init_ShelterA_1_167': 1200.0, 'init_ShelterA_1_165': 1202.0, 'init_ShelterA_1_168': 1203.0, 'init_ShelterA_2_171': 1204.0, 'init_ShelterA_1_169': 1206.0, 'init_ShelterA_1_170': 1209.0, 'init_ShelterA_1_174': 1212.0, 'init_ShelterA_1_172': 1214.0, 'init_ShelterA_1_176': 1215.0, 'init_ShelterA_1_173': 1223.0, 'init_ShelterA_2_175': 1225.0, 'init_ShelterA_1_177': 1230.0, 'init_ShelterA_1_178': 1235.0, 'init_ShelterA_1_181': 1245.0, 'init_ShelterA_1_179': 1248.0, 'init_ShelterA_2_182': 1248.0, 'init_ShelterA_2_183': 1250.0, 'init_ShelterA_1_185': 1260.0, 'init_ShelterA_1_180': 1262.0, 'init_ShelterA_1_187': 1270.0, 'init_ShelterA_1_184': 1279.0, 'init_ShelterA_1_188': 1280.0, 'init_ShelterA_1_190': 1289.0, 'init_ShelterA_2_191': 1291.0, 'init_ShelterA_1_193': 1301.0, 'init_ShelterA_1_194': 1311.0, 'init_ShelterA_1_186': 1312.0, 'init_ShelterA_1_189': 1314.0, 'init_ShelterA_1_192': 1317.0, 'init_ShelterA_1_195': 1319.0, 'init_ShelterA_1_196': 1320.0, 'init_ShelterA_1_197': 1330.0, 'init_ShelterA_1_198': 1340.0, 'init_ShelterA_2_200': 1342.0, 'init_ShelterA_1_199': 1347.0, 'init_ShelterA_1_201': 1352.0, 'init_ShelterA_1_203': 1362.0, 'init_ShelterA_1_202': 1370.0, 'init_ShelterA_1_204': 1371.0, 'init_ShelterA_1_205': 1373.0, 'init_ShelterA_1_209': 1374.0, 'init_ShelterA_1_206': 1381.0, 'init_ShelterA_1_207': 1391.0, 'init_ShelterA_1_208': 1400.0, 'init_ShelterA_1_210': 1410.0, 'init_ShelterA_1_211': 1420.0, 'init_ShelterA_1_212': 1429.0, 'init_ShelterA_2_213': 1431.0, 'init_ShelterA_1_214': 1441.0, 'init_ShelterA_1_215': 1441.0, 'init_ShelterA_2_217': 1443.0, 'init_ShelterA_1_250': 1454.0, 'init_ShelterA_1_216': 1459.0, 'init_ShelterA_1_218': 1461.0, 'init_ShelterA_1_252': 1464.0, 'init_ShelterA_2_253': 1466.0, 'init_ShelterA_1_219': 1468.0, 'init_ShelterA_1_248': 1470.0, 'init_ShelterA_1_249': 1472.0, 'init_ShelterA_1_255': 1476.0, 'init_ShelterA_1_251': 1478.0, 'init_ShelterA_1_254': 1480.0, 'init_ShelterA_1_257': 1485.0, 'init_ShelterA_1_259': 1496.0, 'init_ShelterA_2_260': 1498.0, 'init_ShelterA_1_261': 1508.0, 'init_ShelterA_1_256': 1514.0, 'init_ShelterA_1_262': 1514.0, 'init_ShelterA_1_265': 1518.0, 'newveh_ShelterA_1_242_27': 1523.0, 'init_ShelterA_1_258': 1543.0, 'init_ShelterA_1_263': 1545.0, 'init_ShelterA_1_264': 1549.0, 'newveh_ShelterA_1_236_26': 1557.0, 'newveh_ShelterA_1_232_25': 1562.0, 'newveh_ShelterA_2_220_0': 1579.0, 'newveh_ShelterA_1_225_24': 1580.0, 'newveh_ShelterA_2_247_22': 1587.0, 'newveh_ShelterA_2_246_21': 1592.0, 'newveh_ShelterA_2_245_20': 1597.0, 'newveh_ShelterA_2_244_19': 1603.0, 'newveh_ShelterA_2_243_18': 1611.0, 'newveh_ShelterA_2_241_17': 1615.0, 'newveh_ShelterA_2_240_16': 1619.0, 'newveh_ShelterA_1_222_23': 1640.0, 'init_ShelterA_1_286': 1646.0, 'init_ShelterA_1_290': 1653.0, 'init_ShelterA_1_291': 1659.0, 'newveh_ShelterA_2_239_15': 1663.0, 'init_ShelterA_1_292': 1665.0, 'newveh_ShelterA_2_238_14': 1669.0, 'init_ShelterA_1_294': 1671.0, 'newveh_ShelterA_2_237_13': 1675.0, 'init_ShelterA_1_295': 1678.0, 'newveh_ShelterA_2_235_12': 1680.0, 'init_ShelterA_1_296': 1685.0, 'newveh_ShelterA_2_234_11': 1687.0, 'newveh_ShelterA_2_233_10': 1692.0, 'newveh_ShelterA_1_272_30': 1693.0, 'newveh_ShelterA_2_231_9': 1698.0, 'init_ShelterA_1_308': 1700.0, 'init_ShelterA_1_309': 1704.0, 'newveh_ShelterA_2_230_8': 1705.0, 'init_ShelterA_1_310': 1708.0, 'newveh_ShelterA_2_229_7': 1712.0, 'newveh_ShelterA_2_228_6': 1719.0, 'newveh_ShelterA_2_227_5': 1727.0, 'newveh_ShelterA_2_226_4': 1732.0, 'newveh_ShelterA_2_224_3': 1738.0, 'newveh_ShelterA_2_223_2': 1744.0, 'init_ShelterA_1_311': 1749.0, 'newveh_ShelterA_2_293_74': 1752.0, 'init_ShelterA_1_312': 1755.0, 'newveh_ShelterA_2_221_1': 1760.0, 'init_ShelterA_1_313': 1762.0, 'newveh_ShelterA_2_266_28': 1764.0, 'newveh_ShelterA_1_276_38': 1767.0, 'newveh_ShelterA_2_267_29': 1768.0, 'init_ShelterA_1_314': 1771.0, 'newveh_ShelterA_2_277_37': 1784.0, 'newveh_ShelterA_2_275_36': 1818.0, 'newveh_ShelterA_1_284_47': 1822.0, 'init_ShelterA_1_320': 1830.0, 'init_ShelterA_1_323': 1836.0, 'init_ShelterA_1_325': 1842.0, 'newveh_ShelterA_2_274_35': 1845.0, 'init_ShelterA_1_332': 1846.0, 'newveh_ShelterA_2_271_34': 1852.0, 'newveh_ShelterA_2_270_33': 1858.0, 'newveh_ShelterA_2_269_32': 1864.0, 'newveh_ShelterA_2_268_31': 1870.0, 'newveh_ShelterA_2_281_43': 1878.0, 'newveh_ShelterA_2_280_42': 1885.0, 'newveh_ShelterA_2_279_41': 1893.0, 'newveh_ShelterA_2_278_40': 1900.0, 'newveh_ShelterA_2_273_39': 1905.0, 'newveh_ShelterA_2_282_44': 1909.0, 'newveh_ShelterA_1_302_51': 1917.0, 'newveh_ShelterA_2_283_45': 1930.0, 'init_ShelterA_1_344': 1933.0, 'newveh_ShelterA_2_285_46': 1937.0, 'init_ShelterA_1_345': 1941.0, 'newveh_ShelterA_2_289_50': 1943.0, 'newveh_ShelterA_1_304_52': 1946.0, 'newveh_ShelterA_2_288_49': 1949.0, 'init_ShelterA_1_350': 1950.0, 'newveh_ShelterA_2_287_48': 1969.0, 'init_ShelterA_1_321': 1971.0, 'init_ShelterA_1_322': 1973.0, 'init_ShelterA_1_324': 1976.0, 'init_ShelterA_1_331': 1977.0, 'init_ShelterA_1_333': 1980.0, 'init_ShelterA_1_334': 1983.0, 'init_ShelterA_1_336': 1985.0, 'init_ShelterA_1_337': 1996.0, 'init_ShelterA_1_338': 1998.0, 'init_ShelterA_1_340': 2000.0, 'init_ShelterA_1_341': 2008.0, 'init_ShelterA_1_355': 2010.0, 'init_ShelterA_1_356': 2015.0, 'init_ShelterA_1_358': 2024.0, 'init_ShelterA_1_342': 2025.0, 'init_ShelterA_1_343': 2027.0, 'init_ShelterA_1_359': 2030.0, 'init_ShelterA_1_361': 2037.0, 'init_ShelterA_1_371': 2041.0, 'init_ShelterA_1_373': 2045.0, 'newveh_ShelterA_2_297_53': 2046.0, 'newveh_ShelterA_2_299_55': 2052.0, 'newveh_ShelterA_2_298_54': 2060.0, 'newveh_ShelterA_2_300_56': 2066.0, 'newveh_ShelterA_2_346_106': 2071.0, 'newveh_ShelterA_2_351_108': 2076.0, 'newveh_ShelterA_2_347_107': 2082.0, 'newveh_ShelterA_2_375_109': 2090.0, 'init_ShelterA_1_379': 2093.0, 'newveh_ShelterA_2_301_57': 2094.0, 'newveh_ShelterA_2_303_58': 2099.0, 'init_ShelterA_1_380': 2100.0, 'init_ShelterA_1_381': 2105.0, 'newveh_ShelterA_2_305_59': 2110.0, 'init_ShelterA_1_382': 2111.0, 'init_ShelterA_1_383': 2118.0, 'newveh_ShelterA_2_306_60': 2119.0, 'init_ShelterA_1_384': 2125.0, 'newveh_ShelterA_2_307_61': 2125.0, 'init_ShelterA_1_357': 2127.0, 'init_ShelterA_1_360': 2129.0, 'newveh_ShelterA_1_339_68': 2129.0, 'newveh_ShelterA_1_335_67': 2134.0, 'newveh_ShelterA_2_317_62': 2137.0, 'newveh_ShelterA_2_319_64': 2144.0, 'newveh_ShelterA_2_318_63': 2149.0, 'newveh_ShelterA_2_378_110': 2153.0, 'newveh_ShelterA_2_316_66': 2194.0, 'newveh_ShelterA_1_376_90': 2196.0, 'newveh_ShelterA_2_315_65': 2202.0, 'init_ShelterA_1_374': 2205.0, 'newveh_ShelterA_1_389_91': 2205.0, 'init_ShelterA_1_377': 2207.0, 'newveh_ShelterA_2_326_69': 2233.0, 'newveh_ShelterA_2_348_75': 2241.0, 'newveh_ShelterA_2_362_80': 2249.0, 'newveh_ShelterA_2_354_79': 2254.0, 'newveh_ShelterA_2_353_78': 2258.0, 'newveh_ShelterA_2_352_77': 2278.0, 'newveh_ShelterA_2_330_73': 2286.0, 'newveh_ShelterA_2_329_72': 2294.0, 'newveh_ShelterA_2_328_71': 2299.0, 'newveh_ShelterA_2_327_70': 2304.0, 'newveh_ShelterA_2_349_76': 2309.0, 'newveh_ShelterA_2_363_81': 2315.0, 'newveh_ShelterA_2_364_82': 2320.0, 'newveh_ShelterA_2_372_89': 2326.0, 'newveh_ShelterA_2_370_85': 2332.0, 'newveh_ShelterA_2_368_84': 2339.0, 'newveh_ShelterA_2_365_83': 2346.0, 'newveh_ShelterA_2_369_88': 2354.0, 'newveh_ShelterA_2_367_87': 2359.0, 'newveh_ShelterA_2_366_86': 2363.0, 'newveh_ShelterA_2_388_92': 2372.0, 'newveh_ShelterA_2_397_93': 2387.0, 'newveh_ShelterA_2_385_96': 2394.0, 'newveh_ShelterA_2_399_95': 2400.0, 'newveh_ShelterA_2_398_94': 2406.0, 'newveh_ShelterA_2_395_104': 2413.0, 'newveh_ShelterA_2_394_103': 2420.0, 'newveh_ShelterA_2_393_102': 2427.0, 'newveh_ShelterA_2_392_101': 2435.0, 'newveh_ShelterA_2_391_100': 2444.0, 'newveh_ShelterA_2_390_99': 2452.0, 'newveh_ShelterA_2_387_98': 2459.0, 'newveh_ShelterA_2_386_97': 2464.0, 'newveh_ShelterA_2_396_105': 2468.0}
vehicle_abandant_time_by_pedestrianID_dict:{}
walking_distance_by_pedestrianID_dict:{}
route_change_time_by_vehID_dict:{'init_ShelterA_1_44': 370.0, 'init_ShelterA_2_54': 400.0, 'init_ShelterA_1_52': 410.0, 'init_ShelterA_1_53': 410.0, 'init_ShelterA_1_55': 410.0, 'init_ShelterA_1_56': 410.0, 'init_ShelterA_1_58': 410.0, 'init_ShelterA_2_57': 410.0, 'init_ShelterA_1_50': 420.0, 'init_ShelterA_1_59': 420.0, 'init_ShelterA_1_61': 420.0, 'init_ShelterA_1_67': 460.0, 'init_ShelterA_2_87': 520.0, 'init_ShelterA_1_84': 530.0, 'init_ShelterA_1_81': 540.0, 'init_ShelterA_1_93': 590.0, 'init_ShelterA_1_97': 600.0, 'init_ShelterA_2_102': 600.0, 'init_ShelterA_2_104': 600.0, 'init_ShelterA_1_105': 610.0, 'init_ShelterA_1_106': 610.0, 'init_ShelterA_1_107': 610.0, 'init_ShelterA_1_94': 610.0, 'init_ShelterA_1_96': 610.0, 'init_ShelterA_2_108': 610.0, 'init_ShelterA_1_103': 650.0, 'init_ShelterA_2_119': 690.0, 'init_ShelterA_1_113': 700.0, 'init_ShelterA_1_116': 700.0, 'init_ShelterA_1_124': 700.0, 'init_ShelterA_2_121': 700.0, 'init_ShelterA_2_123': 700.0, 'init_ShelterA_1_122': 710.0, 'init_ShelterA_1_112': 720.0, 'init_ShelterA_1_115': 730.0, 'init_ShelterA_1_117': 730.0, 'init_ShelterA_1_118': 740.0, 'init_ShelterA_1_131': 770.0, 'init_ShelterA_1_134': 770.0, 'init_ShelterA_1_135': 770.0, 'init_ShelterA_1_138': 770.0, 'init_ShelterA_1_139': 770.0, 'init_ShelterA_1_132': 780.0, 'init_ShelterA_1_141': 780.0, 'init_ShelterA_1_143': 780.0, 'init_ShelterA_1_140': 790.0, 'init_ShelterA_1_144': 830.0, 'init_ShelterA_1_155': 910.0, 'init_ShelterA_1_158': 910.0, 'init_ShelterA_1_159': 910.0, 'init_ShelterA_1_160': 910.0, 'init_ShelterA_1_149': 920.0, 'init_ShelterA_1_151': 920.0, 'init_ShelterA_1_161': 930.0, 'init_ShelterA_1_162': 930.0, 'init_ShelterA_1_164': 930.0, 'init_ShelterA_1_167': 940.0, 'init_ShelterA_2_171': 940.0, 'init_ShelterA_1_169': 950.0, 'init_ShelterA_1_170': 950.0, 'init_ShelterA_1_176': 950.0, 'init_ShelterA_2_175': 950.0, 'init_ShelterA_1_174': 960.0, 'init_ShelterA_1_220': 980.0, 'init_ShelterA_1_221': 980.0, 'init_ShelterA_1_223': 980.0, 'init_ShelterA_1_224': 980.0, 'init_ShelterA_1_226': 980.0, 'init_ShelterA_1_227': 980.0, 'init_ShelterA_1_228': 980.0, 'init_ShelterA_1_229': 980.0, 'init_ShelterA_1_230': 980.0, 'init_ShelterA_1_231': 980.0, 'init_ShelterA_1_233': 980.0, 'init_ShelterA_1_234': 980.0, 'init_ShelterA_1_235': 980.0, 'init_ShelterA_1_237': 980.0, 'init_ShelterA_1_238': 980.0, 'init_ShelterA_1_239': 980.0, 'init_ShelterA_1_240': 980.0, 'init_ShelterA_1_241': 980.0, 'init_ShelterA_1_243': 980.0, 'init_ShelterA_1_244': 980.0, 'init_ShelterA_1_245': 980.0, 'init_ShelterA_1_246': 980.0, 'init_ShelterA_1_247': 980.0, 'init_ShelterA_2_222': 980.0, 'init_ShelterA_2_225': 980.0, 'init_ShelterA_2_232': 980.0, 'init_ShelterA_2_236': 980.0, 'init_ShelterA_2_242': 980.0, 'init_ShelterA_1_166': 1000.0, 'init_ShelterA_1_168': 1000.0, 'init_ShelterA_1_177': 1010.0, 'init_ShelterA_1_180': 1010.0, 'init_ShelterA_2_182': 1010.0, 'init_ShelterA_2_183': 1010.0, 'init_ShelterA_1_179': 1020.0, 'init_ShelterA_1_184': 1020.0, 'init_ShelterA_2_191': 1030.0, 'init_ShelterA_1_186': 1040.0, 'init_ShelterA_1_192': 1040.0, 'init_ShelterA_1_195': 1040.0, 'init_ShelterA_1_189': 1050.0, 'init_ShelterA_1_266': 1060.0, 'init_ShelterA_1_267': 1060.0, 'init_ShelterA_2_200': 1110.0, 'init_ShelterA_1_199': 1120.0, 'init_ShelterA_1_202': 1120.0, 'init_ShelterA_1_205': 1120.0, 'init_ShelterA_2_213': 1120.0, 'init_ShelterA_2_272': 1120.0, 'init_ShelterA_1_268': 1130.0, 'init_ShelterA_1_269': 1130.0, 'init_ShelterA_1_270': 1130.0, 'init_ShelterA_1_271': 1130.0, 'init_ShelterA_1_274': 1130.0, 'init_ShelterA_1_275': 1130.0, 'init_ShelterA_1_277': 1130.0, 'init_ShelterA_2_276': 1130.0, 'init_ShelterA_1_273': 1140.0, 'init_ShelterA_1_278': 1140.0, 'init_ShelterA_1_279': 1140.0, 'init_ShelterA_1_280': 1140.0, 'init_ShelterA_1_281': 1140.0, 'init_ShelterA_1_282': 1150.0, 'init_ShelterA_1_283': 1150.0, 'init_ShelterA_1_285': 1150.0, 'init_ShelterA_2_284': 1150.0, 'init_ShelterA_1_287': 1160.0, 'init_ShelterA_1_288': 1160.0, 'init_ShelterA_1_289': 1160.0, 'init_ShelterA_1_209': 1180.0, 'init_ShelterA_1_215': 1200.0, 'init_ShelterA_1_249': 1200.0, 'init_ShelterA_2_217': 1200.0, 'init_ShelterA_2_253': 1200.0, 'init_ShelterA_1_218': 1210.0, 'init_ShelterA_1_251': 1210.0, 'init_ShelterA_1_254': 1210.0, 'init_ShelterA_1_248': 1220.0, 'init_ShelterA_2_302': 1220.0, 'init_ShelterA_1_216': 1230.0, 'init_ShelterA_2_304': 1240.0, 'init_ShelterA_1_297': 1250.0, 'init_ShelterA_1_298': 1250.0, 'init_ShelterA_1_299': 1250.0, 'init_ShelterA_1_300': 1250.0, 'init_ShelterA_1_301': 1250.0, 'init_ShelterA_1_303': 1250.0, 'init_ShelterA_1_305': 1250.0, 'init_ShelterA_1_306': 1250.0, 'init_ShelterA_1_307': 1250.0, 'init_ShelterA_2_260': 1250.0, 'init_ShelterA_1_258': 1260.0, 'init_ShelterA_1_263': 1260.0, 'init_ShelterA_1_219': 1270.0, 'init_ShelterA_1_256': 1280.0, 'init_ShelterA_1_264': 1290.0, 'init_ShelterA_1_317': 1310.0, 'init_ShelterA_1_318': 1310.0, 'init_ShelterA_1_319': 1310.0, 'init_ShelterA_1_315': 1320.0, 'init_ShelterA_1_316': 1320.0, 'init_ShelterA_2_335': 1400.0, 'init_ShelterA_2_339': 1400.0, 'init_ShelterA_1_326': 1410.0, 'init_ShelterA_1_327': 1410.0, 'init_ShelterA_1_328': 1410.0, 'init_ShelterA_1_329': 1410.0, 'init_ShelterA_1_330': 1410.0, 'init_ShelterA_1_293': 1440.0, 'init_ShelterA_1_348': 1490.0, 'init_ShelterA_1_349': 1490.0, 'init_ShelterA_1_352': 1490.0, 'init_ShelterA_1_353': 1490.0, 'init_ShelterA_1_354': 1490.0, 'init_ShelterA_1_362': 1550.0, 'init_ShelterA_1_363': 1550.0, 'init_ShelterA_1_364': 1550.0, 'init_ShelterA_1_365': 1550.0, 'init_ShelterA_1_368': 1550.0, 'init_ShelterA_1_370': 1550.0, 'init_ShelterA_1_366': 1560.0, 'init_ShelterA_1_367': 1560.0, 'init_ShelterA_1_369': 1560.0, 'init_ShelterA_1_372': 1570.0, 'init_ShelterA_2_376': 1580.0, 'init_ShelterA_2_389': 1640.0, 'init_ShelterA_1_388': 1650.0, 'init_ShelterA_1_397': 1650.0, 'init_ShelterA_1_398': 1650.0, 'init_ShelterA_1_399': 1650.0, 'init_ShelterA_1_385': 1660.0, 'init_ShelterA_1_386': 1660.0, 'init_ShelterA_1_387': 1660.0, 'init_ShelterA_1_390': 1660.0, 'init_ShelterA_1_391': 1660.0, 'init_ShelterA_1_392': 1660.0, 'init_ShelterA_1_393': 1660.0, 'init_ShelterA_1_394': 1660.0, 'init_ShelterA_1_395': 1660.0, 'init_ShelterA_1_396': 1670.0, 'init_ShelterA_1_342': 1690.0, 'init_ShelterA_1_346': 1690.0, 'init_ShelterA_1_337': 1700.0, 'init_ShelterA_1_340': 1700.0, 'init_ShelterA_1_347': 1700.0, 'init_ShelterA_1_351': 1700.0, 'init_ShelterA_1_334': 1710.0, 'init_ShelterA_1_324': 1720.0, 'init_ShelterA_1_333': 1730.0, 'init_ShelterA_1_341': 1730.0, 'init_ShelterA_1_343': 1730.0, 'init_ShelterA_1_357': 1730.0, 'init_ShelterA_1_360': 1730.0, 'init_ShelterA_1_331': 1740.0, 'init_ShelterA_1_338': 1740.0, 'init_ShelterA_1_374': 1740.0, 'init_ShelterA_1_377': 1740.0, 'init_ShelterA_1_321': 1750.0, 'init_ShelterA_1_322': 1750.0, 'init_ShelterA_1_336': 1750.0, 'init_ShelterA_1_375': 1780.0, 'init_ShelterA_1_378': 1790.0}
pedestrian_count:0
route_changed_vehicle_count:225
route_change_event_count:225
rate_vehicle_abandonment:0.00%
wrong_way_driving_count:0
vehicle_abandonment_count:0
normalcy_bias_route_change_count:150
majority_bias_route_change_count:75
lane_changed_vehicle_count:0
info_obtained_lanechange_count:0
elapsed_time_lanechange_count:0
majority_bias_lanechange_count:0

=== Job Result ===
end=2026-07-13T01:22:16+0900
elapsed_seconds=473
exit_code=0
status=SUCCESS
