=== Job Info ===
job_name=va_s5_e1.0_v1.0_r1
host=schubert
pid=115088
scenario=5
early_rate=1.0
v2v_rate=1.0
run_id=1
config=/home/katagi/vehicle-assistant-system/scenarios/JIP/configs/config_scenario_5.toml
output_dir=/home/katagi/vehicle-assistant-system/schubert_logs/va_s5_e1.0_v1.0_r1
start=2026-07-13T01:30:30+0900
python_version=Python 3.12.3
sumo_version=Eclipse SUMO sumo Version v1_23_1+0435-630512a

=== Command ===
cd /home/katagi/vehicle-assistant-system/schubert_logs/va_s5_e1.0_v1.0_r1
PYTHONPATH=/home/katagi/vehicle-assistant-system:/home/katagi/tmp/sumo/tools:/home/katagi/local/sumo/tools:/home/katagi/tmp/sumo/tools:/home/katagi/local/sumo/tools:/home/katagi/tmp/sumo/tools:/home/katagi/local/sumo/tools: python3 -W ignore::UserWarning -m scenarios.JIP.1-1-4.simulation.runner_simulator --nogui /home/katagi/vehicle-assistant-system/scenarios/JIP/configs/config_scenario_5.toml 1.0 1.0
simulation_pid=115108
Step #0.00 (0ms ?*RT. ?UPS, TraCI: 336ms, vehicles TOT 1 ACT 1 BUF 0)                     Step #100.00 (1ms ~= 1000.00*RT, ~26000.00UPS, TraCI: 17ms, vehicles TOT 26 ACT 26 BUF 0) Step #200.00 (1ms ~= 1000.00*RT, ~51000.00UPS, TraCI: 39ms, vehicles TOT 51 ACT 51 BUF 0) Step #300.00 (0ms ?*RT. ?UPS, TraCI: 54ms, vehicles TOT 77 ACT 77 BUF 0)                  Step #400.00 (1ms ~= 1000.00*RT, ~104000.00UPS, TraCI: 691ms, vehicles TOT 104 ACT 104 BUFStep #500.00 (1ms ~= 1000.00*RT, ~131000.00UPS, TraCI: 1484ms, vehicles TOT 131 ACT 131 BUStep #600.00 (1ms ~= 1000.00*RT, ~158000.00UPS, TraCI: 1732ms, vehicles TOT 158 ACT 158 BUStep #700.00 (0ms ?*RT. ?UPS, TraCI: 1200ms, vehicles TOT 186 ACT 186 BUF 0)              Step #800.00 (1ms ~= 1000.00*RT, ~187000.00UPS, TraCI: 1914ms, vehicles TOT 211 ACT 187 BUStep #900.00 (0ms ?*RT. ?UPS, TraCI: 2196ms, vehicles TOT 244 ACT 212 BUF 32)             Step #1000.00 (0ms ?*RT. ?UPS, TraCI: 808ms, vehicles TOT 274 ACT 230 BUF 44)             Step #1100.00 (0ms ?*RT. ?UPS, TraCI: 1515ms, vehicles TOT 307 ACT 258 BUF 46)            Step #1200.00 (1ms ~= 1000.00*RT, ~275000.00UPS, TraCI: 2411ms, vehicles TOT 333 ACT 275 BStep #1300.00 (1ms ~= 1000.00*RT, ~297000.00UPS, TraCI: 3149ms, vehicles TOT 364 ACT 297 BStep #1400.00 (1ms ~= 1000.00*RT, ~315000.00UPS, TraCI: 3335ms, vehicles TOT 390 ACT 315 BStep #1500.00 (1ms ~= 1000.00*RT, ~334000.00UPS, TraCI: 2896ms, vehicles TOT 416 ACT 334 BStep #1600.00 (1ms ~= 1000.00*RT, ~360000.00UPS, TraCI: 3379ms, vehicles TOT 446 ACT 360 BStep #1700.00 (1ms ~= 1000.00*RT, ~381000.00UPS, TraCI: 3007ms, vehicles TOT 479 ACT 381 BStep #1800.00 (0ms ?*RT. ?UPS, TraCI: 3276ms, vehicles TOT 500 ACT 400 BUF 0)             Step #1900.00 (0ms ?*RT. ?UPS, TraCI: 3057ms, vehicles TOT 503 ACT 400 BUF 0)             Step #2000.00 (1ms ~= 1000.00*RT, ~400000.00UPS, TraCI: 2436ms, vehicles TOT 503 ACT 400 BStep #2100.00 (1ms ~= 1000.00*RT, ~400000.00UPS, TraCI: 1591ms, vehicles TOT 503 ACT 400 BStep #2200.00 (0ms ?*RT. ?UPS, TraCI: 1005ms, vehicles TOT 503 ACT 400 BUF 0)             Step #2300.00 (0ms ?*RT. ?UPS, TraCI: 524ms, vehicles TOT 503 ACT 400 BUF 0)              Step #2400.00 (0ms ?*RT. ?UPS, TraCI: 84ms, vehicles TOT 503 ACT 400 BUF 0)               Step #2500.00 (0ms ?*RT. ?UPS, TraCI: 76ms, vehicles TOT 503 ACT 400 BUF 0)               Step #2600.00 (0ms ?*RT. ?UPS, TraCI: 77ms, vehicles TOT 503 ACT 400 BUF 0)               Step #2700.00 (1ms ~= 1000.00*RT, ~400000.00UPS, TraCI: 76ms, vehicles TOT 503 ACT 400 BUFStep #2800.00 (0ms ?*RT. ?UPS, TraCI: 77ms, vehicles TOT 503 ACT 400 BUF 0)               Step #2900.00 (1ms ~= 1000.00*RT, ~400000.00UPS, TraCI: 76ms, vehicles TOT 503 ACT 400 BUFStep #3000.00 (0ms ?*RT. ?UPS, TraCI: 77ms, vehicles TOT 503 ACT 400 BUF 0)               
 Retrying in 1 seconds
出現数: {'A1': 360, 'A2': 40}
割合:
  Total: 400
  A1: 360 (90.00%)
  A2: 40 (10.00%)
  B1: 0 (0.00%)
  B2: 0 (0.00%)
mean elapsed_time: 559.2025
OK all vehs arrived 
平均渋滞継続時間: 483.65秒
OK all vehicle abandonment were detected
285
115
===== Simlation Result Summary =====
avg_congestion_duration: 483.65 
arrival_time_by_vehID_dict:{'init_ShelterA_1_0': 205.0, 'init_ShelterA_1_1': 211.0, 'init_ShelterA_1_2': 216.0, 'init_ShelterA_1_4': 224.0, 'init_ShelterA_1_5': 231.0, 'init_ShelterA_1_6': 238.0, 'init_ShelterA_1_7': 243.0, 'init_ShelterA_1_8': 247.0, 'init_ShelterA_1_9': 285.0, 'init_ShelterA_1_10': 291.0, 'init_ShelterA_1_11': 297.0, 'init_ShelterA_1_12': 302.0, 'init_ShelterA_1_13': 308.0, 'init_ShelterA_1_14': 313.0, 'init_ShelterA_1_15': 319.0, 'init_ShelterA_2_3': 320.0, 'init_ShelterA_1_16': 325.0, 'init_ShelterA_1_17': 332.0, 'init_ShelterA_1_18': 339.0, 'init_ShelterA_1_19': 346.0, 'init_ShelterA_1_20': 350.0, 'init_ShelterA_1_21': 355.0, 'init_ShelterA_1_22': 372.0, 'init_ShelterA_1_23': 386.0, 'init_ShelterA_1_24': 393.0, 'init_ShelterA_1_25': 398.0, 'init_ShelterA_1_26': 403.0, 'init_ShelterA_1_27': 410.0, 'init_ShelterA_1_29': 416.0, 'init_ShelterA_1_30': 423.0, 'init_ShelterA_1_31': 430.0, 'init_ShelterA_1_32': 438.0, 'init_ShelterA_1_33': 447.0, 'init_ShelterA_1_34': 456.0, 'init_ShelterA_1_35': 465.0, 'init_ShelterA_1_36': 474.0, 'init_ShelterA_1_37': 483.0, 'init_ShelterA_1_38': 492.0, 'init_ShelterA_1_39': 501.0, 'init_ShelterA_2_28': 502.0, 'init_ShelterA_1_41': 510.0, 'init_ShelterA_1_44': 518.0, 'init_ShelterA_2_45': 520.0, 'init_ShelterA_1_50': 525.0, 'init_ShelterA_1_54': 530.0, 'init_ShelterA_1_40': 550.0, 'init_ShelterA_1_42': 552.0, 'init_ShelterA_1_56': 555.0, 'init_ShelterA_1_43': 560.0, 'init_ShelterA_1_58': 561.0, 'init_ShelterA_1_46': 562.0, 'init_ShelterA_2_60': 564.0, 'init_ShelterA_1_47': 566.0, 'init_ShelterA_1_61': 571.0, 'init_ShelterA_1_62': 576.0, 'init_ShelterA_1_63': 584.0, 'init_ShelterA_1_48': 591.0, 'init_ShelterA_1_64': 591.0, 'init_ShelterA_1_49': 593.0, 'init_ShelterA_2_65': 593.0, 'init_ShelterA_1_51': 595.0, 'init_ShelterA_1_52': 598.0, 'init_ShelterA_1_53': 601.0, 'init_ShelterA_1_67': 602.0, 'init_ShelterA_1_55': 604.0, 'init_ShelterA_1_69': 609.0, 'init_ShelterA_1_70': 616.0, 'init_ShelterA_1_71': 620.0, 'init_ShelterA_2_72': 622.0, 'init_ShelterA_1_57': 638.0, 'init_ShelterA_1_59': 641.0, 'init_ShelterA_1_73': 647.0, 'init_ShelterA_1_66': 653.0, 'init_ShelterA_1_74': 653.0, 'init_ShelterA_1_75': 658.0, 'init_ShelterA_1_78': 664.0, 'init_ShelterA_1_79': 670.0, 'init_ShelterA_1_80': 675.0, 'init_ShelterA_1_83': 681.0, 'init_ShelterA_1_85': 687.0, 'init_ShelterA_1_86': 694.0, 'init_ShelterA_1_87': 700.0, 'init_ShelterA_1_68': 703.0, 'init_ShelterA_1_88': 705.0, 'init_ShelterA_1_89': 709.0, 'init_ShelterA_1_90': 735.0, 'init_ShelterA_1_76': 739.0, 'init_ShelterA_1_77': 741.0, 'init_ShelterA_1_91': 743.0, 'init_ShelterA_1_92': 749.0, 'init_ShelterA_1_81': 751.0, 'init_ShelterA_1_95': 754.0, 'init_ShelterA_1_82': 756.0, 'init_ShelterA_2_99': 756.0, 'init_ShelterA_1_84': 758.0, 'init_ShelterA_1_101': 767.0, 'init_ShelterA_2_102': 770.0, 'init_ShelterA_1_104': 777.0, 'init_ShelterA_2_105': 779.0, 'init_ShelterA_1_93': 839.0, 'init_ShelterA_1_110': 841.0, 'init_ShelterA_1_94': 841.0, 'init_ShelterA_2_111': 843.0, 'init_ShelterA_1_96': 844.0, 'init_ShelterA_2_115': 845.0, 'init_ShelterA_1_97': 847.0, 'init_ShelterA_1_98': 850.0, 'init_ShelterA_1_117': 851.0, 'init_ShelterA_1_100': 853.0, 'init_ShelterA_1_103': 856.0, 'init_ShelterA_1_118': 863.0, 'init_ShelterA_1_106': 870.0, 'init_ShelterA_1_119': 871.0, 'init_ShelterA_2_121': 873.0, 'init_ShelterA_1_122': 877.0, 'init_ShelterA_1_107': 897.0, 'init_ShelterA_1_108': 918.0, 'init_ShelterA_1_109': 920.0, 'init_ShelterA_1_124': 926.0, 'init_ShelterA_1_125': 933.0, 'init_ShelterA_1_127': 938.0, 'init_ShelterA_1_128': 944.0, 'init_ShelterA_1_129': 950.0, 'init_ShelterA_1_130': 956.0, 'init_ShelterA_1_131': 964.0, 'init_ShelterA_1_112': 967.0, 'init_ShelterA_1_113': 969.0, 'init_ShelterA_1_114': 972.0, 'init_ShelterA_1_132': 972.0, 'init_ShelterA_2_133': 974.0, 'init_ShelterA_1_116': 975.0, 'init_ShelterA_1_120': 978.0, 'init_ShelterA_1_134': 980.0, 'init_ShelterA_1_135': 984.0, 'init_ShelterA_1_123': 997.0, 'init_ShelterA_1_126': 1005.0, 'init_ShelterA_1_140': 1005.0, 'init_ShelterA_1_136': 1013.0, 'init_ShelterA_1_143': 1014.0, 'init_ShelterA_1_145': 1021.0, 'init_ShelterA_1_146': 1026.0, 'init_ShelterA_1_147': 1032.0, 'init_ShelterA_1_137': 1035.0, 'init_ShelterA_1_152': 1037.0, 'init_ShelterA_1_138': 1038.0, 'init_ShelterA_2_153': 1039.0, 'init_ShelterA_1_139': 1040.0, 'init_ShelterA_2_158': 1082.0, 'init_ShelterA_1_141': 1094.0, 'init_ShelterA_1_163': 1102.0, 'init_ShelterA_2_165': 1104.0, 'init_ShelterA_1_142': 1112.0, 'init_ShelterA_1_144': 1114.0, 'init_ShelterA_1_166': 1115.0, 'init_ShelterA_1_148': 1116.0, 'init_ShelterA_2_190': 1117.0, 'init_ShelterA_1_149': 1118.0, 'init_ShelterA_1_150': 1121.0, 'init_ShelterA_1_151': 1124.0, 'init_ShelterA_1_154': 1140.0, 'init_ShelterA_1_155': 1141.0, 'init_ShelterA_1_156': 1144.0, 'init_ShelterA_1_157': 1157.0, 'newveh_ShelterA_1_167_19': 1218.0, 'init_ShelterA_1_159': 1219.0, 'init_ShelterA_1_160': 1221.0, 'init_ShelterA_1_161': 1223.0, 'newveh_ShelterA_1_188_23': 1224.0, 'init_ShelterA_1_162': 1226.0, 'newveh_ShelterA_1_184_22': 1228.0, 'init_ShelterA_1_164': 1254.0, 'newveh_ShelterA_2_171_3': 1270.0, 'newveh_ShelterA_2_170_2': 1277.0, 'newveh_ShelterA_1_183_21': 1279.0, 'newveh_ShelterA_2_169_1': 1282.0, 'newveh_ShelterA_1_181_20': 1285.0, 'init_ShelterA_2_192': 1287.0, 'newveh_ShelterA_2_168_0': 1287.0, 'newveh_ShelterA_2_172_4': 1293.0, 'init_ShelterA_1_193': 1295.0, 'newveh_ShelterA_2_173_5': 1299.0, 'init_ShelterA_1_194': 1302.0, 'newveh_ShelterA_2_174_6': 1306.0, 'init_ShelterA_1_195': 1308.0, 'newveh_ShelterA_2_176_8': 1313.0, 'init_ShelterA_1_196': 1315.0, 'newveh_ShelterA_2_175_7': 1321.0, 'init_ShelterA_1_197': 1323.0, 'newveh_ShelterA_2_177_9': 1330.0, 'init_ShelterA_1_198': 1331.0, 'newveh_ShelterA_2_178_10': 1338.0, 'init_ShelterA_1_199': 1340.0, 'newveh_ShelterA_2_179_11': 1347.0, 'init_ShelterA_1_200': 1349.0, 'newveh_ShelterA_2_185_14': 1357.0, 'init_ShelterA_1_201': 1358.0, 'newveh_ShelterA_2_182_13': 1366.0, 'init_ShelterA_1_202': 1367.0, 'newveh_ShelterA_2_180_12': 1376.0, 'init_ShelterA_1_204': 1377.0, 'newveh_ShelterA_2_186_15': 1385.0, 'init_ShelterA_1_207': 1386.0, 'newveh_ShelterA_2_191_18': 1392.0, 'init_ShelterA_1_208': 1396.0, 'newveh_ShelterA_2_189_17': 1397.0, 'newveh_ShelterA_2_187_16': 1401.0, 'init_ShelterA_1_209': 1406.0, 'init_ShelterA_1_210': 1415.0, 'init_ShelterA_1_211': 1425.0, 'init_ShelterA_1_212': 1435.0, 'init_ShelterA_1_213': 1444.0, 'init_ShelterA_1_219': 1454.0, 'init_ShelterA_1_220': 1464.0, 'init_ShelterA_1_221': 1473.0, 'init_ShelterA_1_222': 1483.0, 'init_ShelterA_1_223': 1493.0, 'init_ShelterA_1_224': 1502.0, 'init_ShelterA_1_225': 1512.0, 'init_ShelterA_1_226': 1521.0, 'init_ShelterA_1_227': 1531.0, 'newveh_ShelterA_1_214_24': 1540.0, 'init_ShelterA_1_240': 1550.0, 'init_ShelterA_1_241': 1560.0, 'newveh_ShelterA_2_218_31': 1560.0, 'init_ShelterA_1_242': 1569.0, 'init_ShelterA_1_243': 1579.0, 'newveh_ShelterA_2_217_30': 1580.0, 'newveh_ShelterA_2_216_29': 1587.0, 'init_ShelterA_1_245': 1588.0, 'newveh_ShelterA_2_215_28': 1593.0, 'init_ShelterA_1_246': 1598.0, 'newveh_ShelterA_2_203_25': 1601.0, 'newveh_ShelterA_2_206_27': 1605.0, 'init_ShelterA_1_247': 1607.0, 'newveh_ShelterA_2_205_26': 1610.0, 'init_ShelterA_1_248': 1617.0, 'init_ShelterA_1_249': 1626.0, 'init_ShelterA_1_252': 1635.0, 'init_ShelterA_1_254': 1645.0, 'init_ShelterA_1_255': 1654.0, 'init_ShelterA_1_257': 1663.0, 'newveh_ShelterA_2_237_32': 1667.0, 'init_ShelterA_1_258': 1673.0, 'init_ShelterA_1_259': 1682.0, 'init_ShelterA_1_260': 1691.0, 'init_ShelterA_1_261': 1700.0, 'newveh_ShelterA_2_228_34': 1703.0, 'init_ShelterA_1_262': 1709.0, 'newveh_ShelterA_2_232_38': 1710.0, 'init_ShelterA_1_263': 1718.0, 'newveh_ShelterA_2_231_37': 1718.0, 'newveh_ShelterA_2_230_36': 1723.0, 'init_ShelterA_1_264': 1727.0, 'newveh_ShelterA_2_285_75': 1727.0, 'newveh_ShelterA_1_239_33': 1736.0, 'newveh_ShelterA_2_229_35': 1739.0, 'init_ShelterA_1_265': 1745.0, 'newveh_ShelterA_2_233_39': 1749.0, 'init_ShelterA_1_266': 1754.0, 'newveh_ShelterA_2_234_40': 1755.0, 'newveh_ShelterA_2_235_41': 1761.0, 'init_ShelterA_1_267': 1763.0, 'newveh_ShelterA_2_236_42': 1766.0, 'newveh_ShelterA_1_244_44': 1772.0, 'newveh_ShelterA_2_238_43': 1775.0, 'newveh_ShelterA_2_250_45': 1779.0, 'init_ShelterA_1_277': 1781.0, 'newveh_ShelterA_2_256_48': 1783.0, 'init_ShelterA_1_278': 1790.0, 'init_ShelterA_1_279': 1799.0, 'init_ShelterA_1_280': 1808.0, 'init_ShelterA_1_281': 1817.0, 'newveh_ShelterA_2_253_47': 1821.0, 'init_ShelterA_1_282': 1826.0, 'init_ShelterA_1_283': 1835.0, 'newveh_ShelterA_2_251_46': 1839.0, 'init_ShelterA_1_299': 1841.0, 'init_ShelterA_1_284': 1843.0, 'init_ShelterA_1_301': 1843.0, 'init_ShelterA_1_295': 1852.0, 'newveh_ShelterA_2_268_49': 1852.0, 'init_ShelterA_2_296': 1854.0, 'init_ShelterA_1_297': 1864.0, 'init_ShelterA_2_298': 1866.0, 'init_ShelterA_1_300': 1876.0, 'init_ShelterA_1_302': 1885.0, 'init_ShelterA_2_303': 1887.0, 'init_ShelterA_2_304': 1889.0, 'init_ShelterA_1_305': 1900.0, 'newveh_ShelterA_2_329_87': 1900.0, 'newveh_ShelterA_2_324_86': 1904.0, 'init_ShelterA_1_306': 1910.0, 'init_ShelterA_1_307': 1920.0, 'newveh_ShelterA_2_275_51': 1924.0, 'init_ShelterA_1_308': 1929.0, 'newveh_ShelterA_2_274_50': 1931.0, 'init_ShelterA_1_315': 1938.0, 'newveh_ShelterA_2_276_52': 1939.0, 'newveh_ShelterA_2_269_53': 1944.0, 'init_ShelterA_1_316': 1948.0, 'newveh_ShelterA_2_270_54': 1948.0, 'newveh_ShelterA_2_271_55': 1955.0, 'init_ShelterA_1_318': 1957.0, 'init_ShelterA_1_319': 1967.0, 'init_ShelterA_1_320': 1976.0, 'newveh_ShelterA_2_272_56': 1977.0, 'newveh_ShelterA_2_273_57': 1981.0, 'init_ShelterA_1_322': 1986.0, 'init_ShelterA_1_323': 1995.0, 'init_ShelterA_1_325': 2004.0, 'init_ShelterA_1_340': 2006.0, 'init_ShelterA_2_326': 2006.0, 'init_ShelterA_1_327': 2017.0, 'init_ShelterA_1_328': 2026.0, 'init_ShelterA_1_330': 2036.0, 'newveh_ShelterA_2_286_58': 2036.0, 'init_ShelterA_1_331': 2045.0, 'newveh_ShelterA_2_294_66': 2052.0, 'init_ShelterA_1_332': 2054.0, 'newveh_ShelterA_2_293_65': 2061.0, 'init_ShelterA_1_333': 2064.0, 'newveh_ShelterA_2_356_98': 2065.0, 'newveh_ShelterA_2_373_99': 2070.0, 'init_ShelterA_1_334': 2073.0, 'init_ShelterA_1_335': 2082.0, 'init_ShelterA_1_336': 2092.0, 'init_ShelterA_1_337': 2101.0, 'newveh_ShelterA_2_292_64': 2104.0, 'init_ShelterA_1_338': 2110.0, 'newveh_ShelterA_2_291_63': 2110.0, 'newveh_ShelterA_2_290_62': 2115.0, 'init_ShelterA_1_339': 2119.0, 'init_ShelterA_2_341': 2121.0, 'newveh_ShelterA_2_289_61': 2124.0, 'newveh_ShelterA_2_288_60': 2129.0, 'init_ShelterA_1_348': 2131.0, 'newveh_ShelterA_2_287_59': 2133.0, 'init_ShelterA_1_349': 2141.0, 'newveh_ShelterA_2_392_102': 2146.0, 'init_ShelterA_1_350': 2150.0, 'newveh_ShelterA_2_389_101': 2151.0, 'init_ShelterA_1_351': 2159.0, 'init_ShelterA_1_352': 2169.0, 'init_ShelterA_1_353': 2178.0, 'newveh_ShelterA_2_387_100': 2178.0, 'init_ShelterA_1_354': 2187.0, 'init_ShelterA_1_365': 2189.0, 'init_ShelterA_1_369': 2192.0, 'init_ShelterA_1_371': 2194.0, 'init_ShelterA_1_355': 2196.0, 'init_ShelterA_1_372': 2196.0, 'init_ShelterA_1_375': 2198.0, 'init_ShelterA_1_357': 2205.0, 'init_ShelterA_1_358': 2215.0, 'newveh_ShelterA_2_309_68': 2217.0, 'init_ShelterA_1_359': 2224.0, 'newveh_ShelterA_2_314_73': 2225.0, 'newveh_ShelterA_2_313_72': 2232.0, 'init_ShelterA_1_361': 2233.0, 'newveh_ShelterA_2_312_71': 2237.0, 'newveh_ShelterA_2_311_70': 2241.0, 'init_ShelterA_1_363': 2242.0, 'init_ShelterA_1_364': 2251.0, 'init_ShelterA_1_366': 2260.0, 'init_ShelterA_1_367': 2268.0, 'newveh_ShelterA_2_310_69': 2270.0, 'init_ShelterA_1_388': 2273.0, 'newveh_ShelterA_1_317_67': 2277.0, 'init_ShelterA_1_374': 2286.0, 'init_ShelterA_2_376': 2289.0, 'newveh_ShelterA_1_321_74': 2298.0, 'init_ShelterA_1_390': 2308.0, 'newveh_ShelterA_2_343_76': 2309.0, 'init_ShelterA_1_391': 2317.0, 'init_ShelterA_2_393': 2319.0, 'newveh_ShelterA_2_345_78': 2319.0, 'newveh_ShelterA_2_344_77': 2328.0, 'init_ShelterA_1_394': 2329.0, 'newveh_ShelterA_2_346_79': 2333.0, 'newveh_ShelterA_2_347_80': 2337.0, 'init_ShelterA_1_395': 2338.0, 'init_ShelterA_1_396': 2348.0, 'newveh_ShelterA_2_386_91': 2356.0, 'init_ShelterA_1_397': 2357.0, 'init_ShelterA_1_398': 2366.0, 'newveh_ShelterA_2_385_90': 2374.0, 'init_ShelterA_1_399': 2375.0, 'newveh_ShelterA_1_342_81': 2382.0, 'newveh_ShelterA_2_384_89': 2382.0, 'newveh_ShelterA_1_370_85': 2387.0, 'newveh_ShelterA_2_382_88': 2387.0, 'newveh_ShelterA_1_383_92': 2392.0, 'newveh_ShelterA_2_368_84': 2393.0, 'newveh_ShelterA_1_360_82': 2397.0, 'newveh_ShelterA_2_362_83': 2399.0, 'newveh_ShelterA_2_378_94': 2405.0, 'newveh_ShelterA_2_377_93': 2412.0, 'newveh_ShelterA_2_380_96': 2419.0, 'newveh_ShelterA_2_379_95': 2423.0, 'newveh_ShelterA_2_381_97': 2428.0}
vehicle_abandant_time_by_pedestrianID_dict:{}
walking_distance_by_pedestrianID_dict:{}
route_change_time_by_vehID_dict:{'init_ShelterA_2_45': 360.0, 'init_ShelterA_1_40': 370.0, 'init_ShelterA_1_46': 370.0, 'init_ShelterA_1_47': 370.0, 'init_ShelterA_1_51': 370.0, 'init_ShelterA_1_52': 370.0, 'init_ShelterA_1_42': 380.0, 'init_ShelterA_1_48': 380.0, 'init_ShelterA_1_49': 380.0, 'init_ShelterA_1_53': 380.0, 'init_ShelterA_1_43': 390.0, 'init_ShelterA_1_55': 420.0, 'init_ShelterA_1_57': 420.0, 'init_ShelterA_2_65': 450.0, 'init_ShelterA_1_59': 460.0, 'init_ShelterA_1_66': 460.0, 'init_ShelterA_1_68': 460.0, 'init_ShelterA_2_60': 460.0, 'init_ShelterA_2_72': 490.0, 'init_ShelterA_1_76': 500.0, 'init_ShelterA_1_82': 520.0, 'init_ShelterA_1_77': 550.0, 'init_ShelterA_1_81': 550.0, 'init_ShelterA_1_84': 550.0, 'init_ShelterA_2_99': 590.0, 'init_ShelterA_1_100': 600.0, 'init_ShelterA_1_93': 600.0, 'init_ShelterA_1_94': 600.0, 'init_ShelterA_1_96': 600.0, 'init_ShelterA_1_97': 600.0, 'init_ShelterA_2_102': 600.0, 'init_ShelterA_2_105': 600.0, 'init_ShelterA_1_103': 610.0, 'init_ShelterA_1_98': 610.0, 'init_ShelterA_1_107': 660.0, 'init_ShelterA_1_108': 660.0, 'init_ShelterA_1_106': 670.0, 'init_ShelterA_1_114': 690.0, 'init_ShelterA_2_111': 690.0, 'init_ShelterA_2_115': 690.0, 'init_ShelterA_1_109': 700.0, 'init_ShelterA_1_116': 700.0, 'init_ShelterA_1_120': 700.0, 'init_ShelterA_1_123': 700.0, 'init_ShelterA_2_121': 700.0, 'init_ShelterA_1_168': 720.0, 'init_ShelterA_1_169': 720.0, 'init_ShelterA_1_170': 720.0, 'init_ShelterA_1_171': 720.0, 'init_ShelterA_1_172': 720.0, 'init_ShelterA_1_173': 720.0, 'init_ShelterA_1_174': 720.0, 'init_ShelterA_1_175': 720.0, 'init_ShelterA_1_176': 720.0, 'init_ShelterA_1_177': 720.0, 'init_ShelterA_1_178': 720.0, 'init_ShelterA_1_179': 720.0, 'init_ShelterA_1_180': 720.0, 'init_ShelterA_1_182': 720.0, 'init_ShelterA_1_185': 720.0, 'init_ShelterA_1_186': 720.0, 'init_ShelterA_1_187': 720.0, 'init_ShelterA_1_189': 720.0, 'init_ShelterA_1_191': 720.0, 'init_ShelterA_2_167': 720.0, 'init_ShelterA_2_181': 720.0, 'init_ShelterA_2_183': 720.0, 'init_ShelterA_2_184': 720.0, 'init_ShelterA_2_188': 720.0, 'init_ShelterA_1_112': 730.0, 'init_ShelterA_1_113': 730.0, 'init_ShelterA_1_126': 750.0, 'init_ShelterA_2_133': 770.0, 'init_ShelterA_1_139': 830.0, 'init_ShelterA_1_142': 830.0, 'init_ShelterA_1_137': 840.0, 'init_ShelterA_1_138': 840.0, 'init_ShelterA_1_136': 850.0, 'init_ShelterA_2_153': 850.0, 'init_ShelterA_1_148': 860.0, 'init_ShelterA_1_150': 860.0, 'init_ShelterA_1_151': 860.0, 'init_ShelterA_1_154': 860.0, 'init_ShelterA_1_155': 860.0, 'init_ShelterA_1_156': 860.0, 'init_ShelterA_1_149': 870.0, 'init_ShelterA_2_158': 870.0, 'init_ShelterA_1_157': 880.0, 'init_ShelterA_2_214': 890.0, 'init_ShelterA_1_203': 900.0, 'init_ShelterA_1_205': 900.0, 'init_ShelterA_1_206': 900.0, 'init_ShelterA_1_215': 900.0, 'init_ShelterA_1_216': 900.0, 'init_ShelterA_1_217': 900.0, 'init_ShelterA_1_218': 900.0, 'init_ShelterA_1_144': 910.0, 'init_ShelterA_1_141': 920.0, 'init_ShelterA_1_160': 920.0, 'init_ShelterA_1_159': 930.0, 'init_ShelterA_1_162': 930.0, 'init_ShelterA_2_165': 940.0, 'init_ShelterA_1_164': 950.0, 'init_ShelterA_2_190': 950.0, 'init_ShelterA_1_161': 960.0, 'init_ShelterA_1_237': 970.0, 'init_ShelterA_2_239': 970.0, 'init_ShelterA_1_228': 980.0, 'init_ShelterA_1_229': 980.0, 'init_ShelterA_1_230': 980.0, 'init_ShelterA_1_231': 980.0, 'init_ShelterA_1_232': 980.0, 'init_ShelterA_1_233': 980.0, 'init_ShelterA_1_234': 980.0, 'init_ShelterA_1_235': 980.0, 'init_ShelterA_1_236': 980.0, 'init_ShelterA_1_238': 980.0, 'init_ShelterA_2_244': 1010.0, 'init_ShelterA_2_192': 1040.0, 'init_ShelterA_1_250': 1070.0, 'init_ShelterA_1_251': 1070.0, 'init_ShelterA_1_253': 1070.0, 'init_ShelterA_1_256': 1070.0, 'init_ShelterA_1_268': 1140.0, 'init_ShelterA_1_274': 1150.0, 'init_ShelterA_1_275': 1150.0, 'init_ShelterA_1_276': 1150.0, 'init_ShelterA_1_269': 1160.0, 'init_ShelterA_1_270': 1160.0, 'init_ShelterA_1_271': 1160.0, 'init_ShelterA_1_272': 1160.0, 'init_ShelterA_1_273': 1160.0, 'init_ShelterA_1_286': 1240.0, 'init_ShelterA_1_287': 1240.0, 'init_ShelterA_1_288': 1240.0, 'init_ShelterA_1_289': 1240.0, 'init_ShelterA_1_290': 1240.0, 'init_ShelterA_1_291': 1240.0, 'init_ShelterA_1_292': 1240.0, 'init_ShelterA_1_293': 1240.0, 'init_ShelterA_1_294': 1240.0, 'init_ShelterA_2_317': 1320.0, 'init_ShelterA_1_309': 1330.0, 'init_ShelterA_1_310': 1330.0, 'init_ShelterA_1_311': 1330.0, 'init_ShelterA_1_312': 1330.0, 'init_ShelterA_1_313': 1330.0, 'init_ShelterA_1_314': 1330.0, 'init_ShelterA_2_321': 1360.0, 'init_ShelterA_1_285': 1430.0, 'init_ShelterA_2_296': 1440.0, 'init_ShelterA_2_298': 1440.0, 'init_ShelterA_1_343': 1470.0, 'init_ShelterA_1_344': 1470.0, 'init_ShelterA_1_345': 1470.0, 'init_ShelterA_1_346': 1470.0, 'init_ShelterA_1_347': 1470.0, 'init_ShelterA_2_342': 1470.0, 'init_ShelterA_2_303': 1500.0, 'init_ShelterA_2_304': 1500.0, 'init_ShelterA_1_301': 1510.0, 'init_ShelterA_1_299': 1520.0, 'init_ShelterA_2_360': 1570.0, 'init_ShelterA_1_362': 1580.0, 'init_ShelterA_1_368': 1580.0, 'init_ShelterA_2_370': 1580.0, 'init_ShelterA_2_326': 1600.0, 'init_ShelterA_1_324': 1610.0, 'init_ShelterA_1_329': 1610.0, 'init_ShelterA_1_340': 1640.0, 'init_ShelterA_1_382': 1650.0, 'init_ShelterA_1_384': 1650.0, 'init_ShelterA_1_385': 1650.0, 'init_ShelterA_1_386': 1650.0, 'init_ShelterA_2_383': 1650.0, 'init_ShelterA_1_377': 1660.0, 'init_ShelterA_1_378': 1660.0, 'init_ShelterA_1_379': 1660.0, 'init_ShelterA_1_380': 1660.0, 'init_ShelterA_1_381': 1660.0, 'init_ShelterA_2_341': 1680.0, 'init_ShelterA_1_356': 1770.0, 'init_ShelterA_1_373': 1790.0, 'init_ShelterA_1_388': 1820.0, 'init_ShelterA_2_376': 1850.0, 'init_ShelterA_2_393': 1870.0, 'init_ShelterA_1_387': 1880.0, 'init_ShelterA_1_389': 1880.0, 'init_ShelterA_1_392': 1880.0, 'init_ShelterA_1_375': 1990.0, 'init_ShelterA_1_372': 2000.0, 'init_ShelterA_1_369': 2010.0, 'init_ShelterA_1_371': 2010.0, 'init_ShelterA_1_365': 2020.0}
pedestrian_count:0
route_changed_vehicle_count:194
route_change_event_count:194
rate_vehicle_abandonment:0.00%
wrong_way_driving_count:0
vehicle_abandonment_count:0
normalcy_bias_route_change_count:129
majority_bias_route_change_count:65
lane_changed_vehicle_count:0
info_obtained_lanechange_count:0
elapsed_time_lanechange_count:0
majority_bias_lanechange_count:0

=== Job Result ===
end=2026-07-13T01:40:24+0900
elapsed_seconds=594
exit_code=0
status=SUCCESS
