=== Job Info ===
job_name=va_s3_e1.0_v1.0_r44
host=schubert
pid=111861
scenario=3
early_rate=1.0
v2v_rate=1.0
run_id=44
config=/home/katagi/vehicle-assistant-system/scenarios/JIP/configs/config_scenario_3.toml
output_dir=/home/katagi/vehicle-assistant-system/schubert_logs/va_s3_e1.0_v1.0_r44
start=2026-07-13T01:07:20+0900
python_version=Python 3.12.3
sumo_version=Eclipse SUMO sumo Version v1_23_1+0435-630512a

=== Command ===
cd /home/katagi/vehicle-assistant-system/schubert_logs/va_s3_e1.0_v1.0_r44
PYTHONPATH=/home/katagi/vehicle-assistant-system:/home/katagi/tmp/sumo/tools:/home/katagi/local/sumo/tools:/home/katagi/tmp/sumo/tools:/home/katagi/local/sumo/tools:/home/katagi/tmp/sumo/tools:/home/katagi/local/sumo/tools: python3 -W ignore::UserWarning -m scenarios.JIP.1-1-4.simulation.runner_simulator --nogui /home/katagi/vehicle-assistant-system/scenarios/JIP/configs/config_scenario_3.toml 1.0 1.0
simulation_pid=111881
Step #0.00 (0ms ?*RT. ?UPS, TraCI: 333ms, vehicles TOT 1 ACT 1 BUF 0)                     Step #100.00 (0ms ?*RT. ?UPS, TraCI: 19ms, vehicles TOT 26 ACT 26 BUF 0)                  Step #200.00 (0ms ?*RT. ?UPS, TraCI: 36ms, vehicles TOT 51 ACT 51 BUF 0)                  Step #300.00 (0ms ?*RT. ?UPS, TraCI: 53ms, vehicles TOT 77 ACT 77 BUF 0)                  Step #400.00 (1ms ~= 1000.00*RT, ~104000.00UPS, TraCI: 586ms, vehicles TOT 105 ACT 104 BUFStep #500.00 (0ms ?*RT. ?UPS, TraCI: 1185ms, vehicles TOT 132 ACT 131 BUF 0)              Step #600.00 (1ms ~= 1000.00*RT, ~158000.00UPS, TraCI: 794ms, vehicles TOT 159 ACT 158 BUFStep #700.00 (1ms ~= 1000.00*RT, ~176000.00UPS, TraCI: 1604ms, vehicles TOT 190 ACT 176 BUStep #800.00 (1ms ~= 1000.00*RT, ~193000.00UPS, TraCI: 1566ms, vehicles TOT 219 ACT 193 BUStep #900.00 (0ms ?*RT. ?UPS, TraCI: 1568ms, vehicles TOT 248 ACT 210 BUF 34)             Step #1000.00 (1ms ~= 1000.00*RT, ~230000.00UPS, TraCI: 1162ms, vehicles TOT 280 ACT 230 BStep #1100.00 (1ms ~= 1000.00*RT, ~258000.00UPS, TraCI: 1272ms, vehicles TOT 317 ACT 258 BStep #1200.00 (1ms ~= 1000.00*RT, ~274000.00UPS, TraCI: 2100ms, vehicles TOT 336 ACT 274 BStep #1300.00 (1ms ~= 1000.00*RT, ~298000.00UPS, TraCI: 2240ms, vehicles TOT 366 ACT 298 BStep #1400.00 (1ms ~= 1000.00*RT, ~319000.00UPS, TraCI: 2619ms, vehicles TOT 396 ACT 319 BStep #1500.00 (0ms ?*RT. ?UPS, TraCI: 1661ms, vehicles TOT 421 ACT 332 BUF 68)            Step #1600.00 (1ms ~= 1000.00*RT, ~357000.00UPS, TraCI: 2514ms, vehicles TOT 450 ACT 357 BStep #1700.00 (1ms ~= 1000.00*RT, ~381000.00UPS, TraCI: 2506ms, vehicles TOT 492 ACT 381 BStep #1800.00 (1ms ~= 1000.00*RT, ~400000.00UPS, TraCI: 2754ms, vehicles TOT 512 ACT 400 BStep #1900.00 (1ms ~= 1000.00*RT, ~400000.00UPS, TraCI: 1573ms, vehicles TOT 514 ACT 400 BStep #2000.00 (0ms ?*RT. ?UPS, TraCI: 1082ms, vehicles TOT 514 ACT 400 BUF 0)             Step #2100.00 (1ms ~= 1000.00*RT, ~400000.00UPS, TraCI: 470ms, vehicles TOT 514 ACT 400 BUStep #2200.00 (0ms ?*RT. ?UPS, TraCI: 94ms, vehicles TOT 514 ACT 400 BUF 0)               Step #2300.00 (1ms ~= 1000.00*RT, ~400000.00UPS, TraCI: 95ms, vehicles TOT 514 ACT 400 BUFStep #2400.00 (0ms ?*RT. ?UPS, TraCI: 89ms, vehicles TOT 514 ACT 400 BUF 0)               Step #2500.00 (1ms ~= 1000.00*RT, ~400000.00UPS, TraCI: 73ms, vehicles TOT 514 ACT 400 BUFStep #2600.00 (1ms ~= 1000.00*RT, ~400000.00UPS, TraCI: 75ms, vehicles TOT 514 ACT 400 BUFStep #2700.00 (0ms ?*RT. ?UPS, TraCI: 73ms, vehicles TOT 514 ACT 400 BUF 0)               Step #2800.00 (0ms ?*RT. ?UPS, TraCI: 76ms, vehicles TOT 514 ACT 400 BUF 0)               Step #2900.00 (0ms ?*RT. ?UPS, TraCI: 79ms, vehicles TOT 514 ACT 400 BUF 0)               Step #3000.00 (0ms ?*RT. ?UPS, TraCI: 79ms, vehicles TOT 514 ACT 400 BUF 0)               
 Retrying in 1 seconds
出現数: {'A1': 371, 'A2': 29}
割合:
  Total: 400
  A1: 371 (92.75%)
  A2: 29 (7.25%)
  B1: 0 (0.00%)
  B2: 0 (0.00%)
mean elapsed_time: 531.4075
OK all vehs arrived 
平均渋滞継続時間: 466.12秒
OK all vehicle abandonment were detected
287
113
===== Simlation Result Summary =====
avg_congestion_duration: 466.12 
arrival_time_by_vehID_dict:{'init_ShelterA_1_0': 218.0, 'init_ShelterA_1_1': 225.0, 'init_ShelterA_1_2': 230.0, 'init_ShelterA_1_3': 236.0, 'init_ShelterA_1_5': 242.0, 'init_ShelterA_1_6': 249.0, 'init_ShelterA_1_7': 254.0, 'init_ShelterA_1_8': 258.0, 'init_ShelterA_1_9': 278.0, 'init_ShelterA_1_10': 288.0, 'init_ShelterA_1_11': 296.0, 'init_ShelterA_1_12': 302.0, 'init_ShelterA_1_13': 309.0, 'init_ShelterA_1_14': 317.0, 'init_ShelterA_1_15': 323.0, 'init_ShelterA_2_4': 325.0, 'init_ShelterA_1_16': 328.0, 'init_ShelterA_1_17': 332.0, 'init_ShelterA_1_19': 340.0, 'init_ShelterA_1_20': 371.0, 'init_ShelterA_1_21': 380.0, 'init_ShelterA_1_22': 386.0, 'init_ShelterA_1_23': 392.0, 'init_ShelterA_1_24': 398.0, 'init_ShelterA_2_18': 403.0, 'init_ShelterA_1_25': 405.0, 'init_ShelterA_1_26': 412.0, 'init_ShelterA_1_31': 420.0, 'init_ShelterA_1_32': 429.0, 'init_ShelterA_1_33': 437.0, 'init_ShelterA_1_34': 443.0, 'init_ShelterA_1_35': 447.0, 'init_ShelterA_1_36': 452.0, 'init_ShelterA_2_42': 460.0, 'init_ShelterA_2_27': 503.0, 'init_ShelterA_1_53': 505.0, 'init_ShelterA_2_28': 509.0, 'newveh_ShelterA_1_29_0': 511.0, 'init_ShelterA_2_30': 514.0, 'init_ShelterA_1_37': 536.0, 'init_ShelterA_2_54': 540.0, 'init_ShelterA_1_38': 554.0, 'init_ShelterA_1_57': 565.0, 'init_ShelterA_1_39': 586.0, 'init_ShelterA_1_40': 588.0, 'init_ShelterA_1_41': 590.0, 'init_ShelterA_1_43': 593.0, 'init_ShelterA_1_44': 596.0, 'init_ShelterA_1_45': 599.0, 'init_ShelterA_1_46': 602.0, 'init_ShelterA_1_47': 605.0, 'init_ShelterA_1_48': 608.0, 'init_ShelterA_1_49': 611.0, 'init_ShelterA_1_50': 614.0, 'init_ShelterA_1_51': 617.0, 'init_ShelterA_1_52': 620.0, 'init_ShelterA_1_73': 652.0, 'init_ShelterA_1_55': 684.0, 'init_ShelterA_1_56': 686.0, 'init_ShelterA_1_58': 689.0, 'init_ShelterA_1_59': 692.0, 'init_ShelterA_1_60': 695.0, 'init_ShelterA_1_61': 697.0, 'init_ShelterA_1_62': 701.0, 'init_ShelterA_1_63': 704.0, 'init_ShelterA_1_64': 706.0, 'init_ShelterA_1_65': 709.0, 'init_ShelterA_1_66': 712.0, 'init_ShelterA_1_67': 715.0, 'init_ShelterA_1_68': 718.0, 'init_ShelterA_1_69': 721.0, 'init_ShelterA_1_70': 724.0, 'init_ShelterA_1_89': 731.0, 'init_ShelterA_2_90': 734.0, 'init_ShelterA_1_71': 735.0, 'init_ShelterA_1_72': 737.0, 'init_ShelterA_1_74': 739.0, 'init_ShelterA_1_75': 750.0, 'init_ShelterA_1_96': 751.0, 'init_ShelterA_1_76': 752.0, 'init_ShelterA_2_97': 753.0, 'init_ShelterA_1_77': 754.0, 'init_ShelterA_1_78': 757.0, 'init_ShelterA_1_79': 759.0, 'init_ShelterA_1_80': 762.0, 'init_ShelterA_1_81': 765.0, 'init_ShelterA_1_102': 767.0, 'init_ShelterA_1_82': 768.0, 'init_ShelterA_1_83': 771.0, 'init_ShelterA_1_84': 774.0, 'init_ShelterA_1_85': 777.0, 'init_ShelterA_1_86': 780.0, 'init_ShelterA_1_87': 783.0, 'init_ShelterA_1_105': 825.0, 'init_ShelterA_1_108': 830.0, 'init_ShelterA_1_114': 847.0, 'init_ShelterA_1_88': 865.0, 'init_ShelterA_1_91': 867.0, 'init_ShelterA_1_92': 869.0, 'init_ShelterA_1_93': 872.0, 'init_ShelterA_1_94': 875.0, 'init_ShelterA_1_95': 878.0, 'init_ShelterA_1_98': 881.0, 'init_ShelterA_1_99': 884.0, 'init_ShelterA_1_100': 887.0, 'init_ShelterA_1_101': 889.0, 'init_ShelterA_1_103': 893.0, 'init_ShelterA_1_104': 896.0, 'init_ShelterA_1_122': 911.0, 'init_ShelterA_2_125': 913.0, 'init_ShelterA_1_127': 922.0, 'init_ShelterA_1_106': 927.0, 'init_ShelterA_1_107': 928.0, 'init_ShelterA_1_109': 930.0, 'init_ShelterA_1_110': 934.0, 'init_ShelterA_1_111': 936.0, 'init_ShelterA_1_131': 938.0, 'init_ShelterA_1_112': 943.0, 'init_ShelterA_1_113': 945.0, 'init_ShelterA_1_135': 950.0, 'init_ShelterA_1_115': 951.0, 'init_ShelterA_1_116': 952.0, 'init_ShelterA_1_117': 955.0, 'init_ShelterA_1_118': 957.0, 'init_ShelterA_1_119': 960.0, 'init_ShelterA_1_120': 963.0, 'init_ShelterA_1_121': 967.0, 'init_ShelterA_1_123': 1007.0, 'init_ShelterA_1_124': 1009.0, 'init_ShelterA_1_139': 1010.0, 'init_ShelterA_1_126': 1012.0, 'init_ShelterA_1_128': 1016.0, 'init_ShelterA_1_140': 1017.0, 'init_ShelterA_1_129': 1018.0, 'init_ShelterA_1_141': 1022.0, 'init_ShelterA_1_142': 1028.0, 'init_ShelterA_1_143': 1035.0, 'init_ShelterA_1_145': 1042.0, 'init_ShelterA_1_130': 1046.0, 'init_ShelterA_1_132': 1048.0, 'init_ShelterA_1_147': 1049.0, 'init_ShelterA_1_133': 1050.0, 'init_ShelterA_1_134': 1052.0, 'init_ShelterA_1_136': 1055.0, 'init_ShelterA_1_148': 1057.0, 'init_ShelterA_1_137': 1058.0, 'init_ShelterA_1_138': 1061.0, 'init_ShelterA_1_157': 1063.0, 'init_ShelterA_1_162': 1068.0, 'init_ShelterA_1_166': 1072.0, 'init_ShelterA_1_144': 1088.0, 'init_ShelterA_1_146': 1099.0, 'init_ShelterA_1_163': 1141.0, 'init_ShelterA_1_164': 1142.0, 'init_ShelterA_1_165': 1149.0, 'init_ShelterA_1_167': 1151.0, 'init_ShelterA_1_168': 1179.0, 'newveh_ShelterA_1_177_16': 1187.0, 'newveh_ShelterA_2_149_1': 1199.0, 'init_ShelterA_1_188': 1201.0, 'init_ShelterA_1_190': 1206.0, 'newveh_ShelterA_2_161_12': 1208.0, 'newveh_ShelterA_2_160_11': 1215.0, 'init_ShelterA_1_193': 1222.0, 'newveh_ShelterA_2_159_10': 1222.0, 'init_ShelterA_1_194': 1227.0, 'newveh_ShelterA_2_158_9': 1229.0, 'newveh_ShelterA_2_156_8': 1237.0, 'newveh_ShelterA_2_155_7': 1246.0, 'newveh_ShelterA_2_154_6': 1254.0, 'newveh_ShelterA_2_153_5': 1263.0, 'newveh_ShelterA_2_152_4': 1272.0, 'init_ShelterA_1_196': 1282.0, 'newveh_ShelterA_2_151_3': 1282.0, 'newveh_ShelterA_2_150_2': 1291.0, 'newveh_ShelterA_1_185_25': 1295.0, 'init_ShelterA_1_201': 1302.0, 'newveh_ShelterA_2_169_13': 1302.0, 'init_ShelterA_1_181': 1304.0, 'init_ShelterA_1_182': 1306.0, 'init_ShelterA_1_202': 1309.0, 'init_ShelterA_1_204': 1314.0, 'init_ShelterA_2_205': 1317.0, 'newveh_ShelterA_2_179_15': 1318.0, 'init_ShelterA_1_183': 1320.0, 'init_ShelterA_1_184': 1322.0, 'init_ShelterA_1_214': 1323.0, 'init_ShelterA_1_216': 1328.0, 'newveh_ShelterA_2_176_14': 1346.0, 'init_ShelterA_1_186': 1348.0, 'init_ShelterA_1_187': 1350.0, 'init_ShelterA_1_189': 1352.0, 'init_ShelterA_1_191': 1354.0, 'newveh_ShelterA_2_170_17': 1361.0, 'newveh_ShelterA_1_198_29': 1365.0, 'newveh_ShelterA_2_171_18': 1365.0, 'init_ShelterA_1_222': 1370.0, 'newveh_ShelterA_2_172_19': 1372.0, 'newveh_ShelterA_2_173_20': 1376.0, 'init_ShelterA_1_192': 1379.0, 'init_ShelterA_1_227': 1380.0, 'init_ShelterA_1_228': 1384.0, 'init_ShelterA_1_231': 1403.0, 'init_ShelterA_1_232': 1407.0, 'newveh_ShelterA_2_174_21': 1414.0, 'newveh_ShelterA_2_175_22': 1422.0, 'newveh_ShelterA_2_178_23': 1429.0, 'newveh_ShelterA_2_180_24': 1441.0, 'init_ShelterA_1_195': 1443.0, 'init_ShelterA_1_203': 1445.0, 'init_ShelterA_1_206': 1447.0, 'newveh_ShelterA_2_197_26': 1453.0, 'newveh_ShelterA_1_208_31': 1455.0, 'init_ShelterA_1_241': 1464.0, 'newveh_ShelterA_2_200_28': 1476.0, 'init_ShelterA_1_242': 1477.0, 'init_ShelterA_1_243': 1483.0, 'newveh_ShelterA_2_199_27': 1486.0, 'init_ShelterA_1_221': 1488.0, 'init_ShelterA_1_246': 1488.0, 'init_ShelterA_1_223': 1490.0, 'init_ShelterA_1_224': 1492.0, 'init_ShelterA_1_225': 1494.0, 'init_ShelterA_1_247': 1495.0, 'init_ShelterA_1_226': 1497.0, 'init_ShelterA_1_229': 1499.0, 'init_ShelterA_1_252': 1499.0, 'init_ShelterA_1_230': 1502.0, 'newveh_ShelterA_2_215_30': 1513.0, 'newveh_ShelterA_2_207_32': 1518.0, 'init_ShelterA_1_253': 1545.0, 'newveh_ShelterA_2_244_66': 1548.0, 'init_ShelterA_1_255': 1551.0, 'newveh_ShelterA_2_213_37': 1555.0, 'init_ShelterA_1_257': 1558.0, 'newveh_ShelterA_2_212_36': 1560.0, 'init_ShelterA_1_262': 1563.0, 'newveh_ShelterA_2_211_35': 1568.0, 'newveh_ShelterA_1_238_45': 1572.0, 'newveh_ShelterA_2_210_34': 1572.0, 'init_ShelterA_2_266': 1574.0, 'newveh_ShelterA_2_209_33': 1576.0, 'init_ShelterA_1_267': 1579.0, 'newveh_ShelterA_2_217_38': 1586.0, 'init_ShelterA_1_245': 1588.0, 'newveh_ShelterA_2_220_41': 1597.0, 'newveh_ShelterA_2_219_40': 1605.0, 'newveh_ShelterA_2_218_39': 1610.0, 'newveh_ShelterA_2_260_67': 1614.0, 'init_ShelterA_1_271': 1641.0, 'init_ShelterA_2_272': 1643.0, 'newveh_ShelterA_2_277_74': 1647.0, 'init_ShelterA_1_261': 1649.0, 'init_ShelterA_1_274': 1652.0, 'init_ShelterA_1_275': 1658.0, 'newveh_ShelterA_2_276_73': 1662.0, 'init_ShelterA_1_281': 1664.0, 'newveh_ShelterA_2_273_72': 1667.0, 'init_ShelterA_1_282': 1671.0, 'init_ShelterA_1_283': 1679.0, 'newveh_ShelterA_2_240_44': 1680.0, 'init_ShelterA_1_288': 1687.0, 'newveh_ShelterA_2_239_43': 1690.0, 'init_ShelterA_1_264': 1692.0, 'newveh_ShelterA_1_249_50': 1693.0, 'init_ShelterA_1_265': 1695.0, 'init_ShelterA_1_289': 1698.0, 'init_ShelterA_1_291': 1702.0, 'newveh_ShelterA_2_237_42': 1703.0, 'newveh_ShelterA_2_233_46': 1710.0, 'newveh_ShelterA_2_236_49': 1718.0, 'newveh_ShelterA_1_258_55': 1721.0, 'newveh_ShelterA_2_235_48': 1723.0, 'newveh_ShelterA_1_248_54': 1727.0, 'newveh_ShelterA_2_234_47': 1727.0, 'init_ShelterA_1_278': 1729.0, 'init_ShelterA_1_293': 1735.0, 'init_ShelterA_1_279': 1738.0, 'init_ShelterA_1_280': 1740.0, 'init_ShelterA_1_294': 1741.0, 'init_ShelterA_1_295': 1746.0, 'init_ShelterA_1_296': 1752.0, 'init_ShelterA_1_297': 1758.0, 'init_ShelterA_1_299': 1763.0, 'init_ShelterA_1_305': 1767.0, 'newveh_ShelterA_2_284_80': 1778.0, 'newveh_ShelterA_2_254_52': 1783.0, 'newveh_ShelterA_2_251_51': 1792.0, 'newveh_ShelterA_2_259_53': 1796.0, 'newveh_ShelterA_2_308_90': 1806.0, 'init_ShelterA_1_306': 1815.0, 'newveh_ShelterA_2_304_89': 1817.0, 'newveh_ShelterA_2_263_58': 1822.0, 'init_ShelterA_1_292': 1824.0, 'init_ShelterA_1_312': 1824.0, 'init_ShelterA_1_313': 1831.0, 'newveh_ShelterA_2_256_57': 1833.0, 'init_ShelterA_1_314': 1836.0, 'init_ShelterA_1_315': 1841.0, 'init_ShelterA_1_316': 1848.0, 'init_ShelterA_1_317': 1854.0, 'init_ShelterA_1_319': 1861.0, 'newveh_ShelterA_2_250_56': 1863.0, 'init_ShelterA_1_298': 1865.0, 'init_ShelterA_1_300': 1867.0, 'init_ShelterA_1_320': 1869.0, 'init_ShelterA_1_303': 1870.0, 'newveh_ShelterA_2_269_59': 1875.0, 'init_ShelterA_1_321': 1877.0, 'init_ShelterA_1_323': 1886.0, 'init_ShelterA_1_324': 1893.0, 'newveh_ShelterA_2_333_93': 1898.0, 'init_ShelterA_1_325': 1901.0, 'newveh_ShelterA_2_270_60': 1905.0, 'init_ShelterA_1_326': 1906.0, 'init_ShelterA_1_309': 1911.0, 'init_ShelterA_1_328': 1912.0, 'init_ShelterA_1_330': 1917.0, 'init_ShelterA_1_336': 1921.0, 'newveh_ShelterA_2_268_61': 1931.0, 'init_ShelterA_1_350': 1932.0, 'init_ShelterA_1_351': 1946.0, 'init_ShelterA_2_352': 1948.0, 'init_ShelterA_1_353': 1953.0, 'newveh_ShelterA_2_348_108': 1959.0, 'newveh_ShelterA_2_338_107': 1989.0, 'init_ShelterA_1_357': 1997.0, 'newveh_ShelterA_2_356_110': 2000.0, 'init_ShelterA_1_331': 2002.0, 'init_ShelterA_1_332': 2004.0, 'init_ShelterA_1_358': 2005.0, 'init_ShelterA_1_334': 2006.0, 'init_ShelterA_1_335': 2008.0, 'init_ShelterA_1_337': 2010.0, 'init_ShelterA_1_359': 2010.0, 'init_ShelterA_1_364': 2015.0, 'init_ShelterA_1_339': 2017.0, 'init_ShelterA_1_365': 2021.0, 'init_ShelterA_1_368': 2028.0, 'init_ShelterA_1_369': 2034.0, 'newveh_ShelterA_2_285_62': 2038.0, 'init_ShelterA_1_371': 2039.0, 'newveh_ShelterA_1_302_69': 2043.0, 'newveh_ShelterA_2_290_65': 2045.0, 'newveh_ShelterA_2_287_64': 2053.0, 'newveh_ShelterA_2_286_63': 2059.0, 'init_ShelterA_1_349': 2061.0, 'newveh_ShelterA_2_354_109': 2066.0, 'newveh_ShelterA_2_363_111': 2079.0, 'init_ShelterA_1_355': 2082.0, 'init_ShelterA_1_360': 2084.0, 'newveh_ShelterA_1_307_70': 2085.0, 'init_ShelterA_1_374': 2093.0, 'init_ShelterA_1_377': 2098.0, 'init_ShelterA_1_378': 2105.0, 'init_ShelterA_1_380': 2109.0, 'newveh_ShelterA_1_311_75': 2114.0, 'init_ShelterA_1_386': 2121.0, 'init_ShelterA_1_388': 2126.0, 'init_ShelterA_1_361': 2129.0, 'init_ShelterA_1_362': 2131.0, 'init_ShelterA_1_389': 2132.0, 'init_ShelterA_1_366': 2133.0, 'init_ShelterA_1_370': 2135.0, 'init_ShelterA_1_372': 2137.0, 'newveh_ShelterA_1_327_76': 2138.0, 'newveh_ShelterA_1_329_79': 2143.0, 'init_ShelterA_1_399': 2147.0, 'newveh_ShelterA_2_301_68': 2155.0, 'newveh_ShelterA_2_398_113': 2161.0, 'newveh_ShelterA_2_397_112': 2165.0, 'newveh_ShelterA_2_310_71': 2223.0, 'init_ShelterA_1_375': 2225.0, 'init_ShelterA_1_376': 2227.0, 'init_ShelterA_1_379': 2229.0, 'newveh_ShelterA_2_340_81': 2235.0, 'newveh_ShelterA_1_396_106': 2266.0, 'newveh_ShelterA_2_322_78': 2285.0, 'newveh_ShelterA_2_318_77': 2292.0, 'newveh_ShelterA_2_343_84': 2298.0, 'newveh_ShelterA_2_342_83': 2303.0, 'newveh_ShelterA_2_341_82': 2308.0, 'newveh_ShelterA_2_344_85': 2315.0, 'newveh_ShelterA_2_345_86': 2321.0, 'newveh_ShelterA_2_373_91': 2328.0, 'newveh_ShelterA_2_346_87': 2336.0, 'newveh_ShelterA_2_347_88': 2345.0, 'newveh_ShelterA_2_391_95': 2353.0, 'newveh_ShelterA_2_384_94': 2362.0, 'newveh_ShelterA_2_367_92': 2372.0, 'newveh_ShelterA_2_392_96': 2381.0, 'newveh_ShelterA_2_395_105': 2391.0, 'newveh_ShelterA_2_394_104': 2401.0, 'newveh_ShelterA_2_393_103': 2410.0, 'newveh_ShelterA_2_390_102': 2420.0, 'newveh_ShelterA_2_387_101': 2430.0, 'newveh_ShelterA_2_385_100': 2439.0, 'newveh_ShelterA_2_383_99': 2446.0, 'newveh_ShelterA_2_382_98': 2451.0, 'newveh_ShelterA_2_381_97': 2455.0}
vehicle_abandant_time_by_pedestrianID_dict:{}
walking_distance_by_pedestrianID_dict:{}
route_change_time_by_vehID_dict:{'init_ShelterA_2_42': 360.0, 'init_ShelterA_1_37': 370.0, 'init_ShelterA_1_43': 370.0, 'init_ShelterA_1_44': 370.0, 'init_ShelterA_1_47': 370.0, 'init_ShelterA_1_48': 370.0, 'init_ShelterA_1_49': 370.0, 'init_ShelterA_1_50': 370.0, 'init_ShelterA_1_51': 370.0, 'init_ShelterA_2_29': 370.0, 'init_ShelterA_1_38': 380.0, 'init_ShelterA_1_40': 380.0, 'init_ShelterA_1_41': 380.0, 'init_ShelterA_1_45': 380.0, 'init_ShelterA_1_46': 380.0, 'init_ShelterA_1_52': 380.0, 'init_ShelterA_1_39': 390.0, 'init_ShelterA_2_54': 410.0, 'init_ShelterA_1_55': 420.0, 'init_ShelterA_1_60': 430.0, 'init_ShelterA_1_59': 450.0, 'init_ShelterA_1_58': 460.0, 'init_ShelterA_1_62': 460.0, 'init_ShelterA_1_66': 460.0, 'init_ShelterA_1_67': 460.0, 'init_ShelterA_1_69': 460.0, 'init_ShelterA_1_71': 460.0, 'init_ShelterA_1_72': 460.0, 'init_ShelterA_1_56': 470.0, 'init_ShelterA_1_61': 470.0, 'init_ShelterA_1_63': 470.0, 'init_ShelterA_1_65': 470.0, 'init_ShelterA_1_68': 470.0, 'init_ShelterA_1_64': 480.0, 'init_ShelterA_1_74': 500.0, 'init_ShelterA_1_77': 500.0, 'init_ShelterA_1_70': 510.0, 'init_ShelterA_1_76': 510.0, 'init_ShelterA_1_79': 510.0, 'init_ShelterA_1_81': 510.0, 'init_ShelterA_1_83': 510.0, 'init_ShelterA_1_75': 520.0, 'init_ShelterA_1_78': 520.0, 'init_ShelterA_1_82': 520.0, 'init_ShelterA_1_86': 520.0, 'init_ShelterA_1_85': 560.0, 'init_ShelterA_1_80': 570.0, 'init_ShelterA_1_84': 570.0, 'init_ShelterA_2_90': 580.0, 'init_ShelterA_2_97': 580.0, 'init_ShelterA_1_100': 590.0, 'init_ShelterA_1_91': 590.0, 'init_ShelterA_1_92': 590.0, 'init_ShelterA_1_94': 590.0, 'init_ShelterA_1_95': 590.0, 'init_ShelterA_1_99': 590.0, 'init_ShelterA_1_101': 600.0, 'init_ShelterA_1_88': 600.0, 'init_ShelterA_1_103': 610.0, 'init_ShelterA_1_104': 610.0, 'init_ShelterA_1_87': 610.0, 'init_ShelterA_1_149': 640.0, 'init_ShelterA_1_150': 640.0, 'init_ShelterA_1_151': 640.0, 'init_ShelterA_1_152': 640.0, 'init_ShelterA_1_153': 640.0, 'init_ShelterA_1_154': 640.0, 'init_ShelterA_1_155': 640.0, 'init_ShelterA_1_156': 640.0, 'init_ShelterA_1_158': 640.0, 'init_ShelterA_1_159': 640.0, 'init_ShelterA_1_160': 640.0, 'init_ShelterA_1_161': 640.0, 'init_ShelterA_1_93': 640.0, 'init_ShelterA_1_98': 640.0, 'init_ShelterA_1_107': 660.0, 'init_ShelterA_1_109': 670.0, 'init_ShelterA_1_112': 670.0, 'init_ShelterA_1_106': 680.0, 'init_ShelterA_1_110': 680.0, 'init_ShelterA_1_116': 680.0, 'init_ShelterA_1_169': 680.0, 'init_ShelterA_1_120': 690.0, 'init_ShelterA_1_123': 690.0, 'init_ShelterA_2_125': 690.0, 'init_ShelterA_1_176': 710.0, 'init_ShelterA_1_179': 710.0, 'init_ShelterA_2_177': 710.0, 'init_ShelterA_1_170': 720.0, 'init_ShelterA_1_171': 720.0, 'init_ShelterA_1_172': 720.0, 'init_ShelterA_1_173': 720.0, 'init_ShelterA_1_119': 730.0, 'init_ShelterA_1_124': 730.0, 'init_ShelterA_1_174': 730.0, 'init_ShelterA_1_175': 730.0, 'init_ShelterA_1_178': 730.0, 'init_ShelterA_1_180': 730.0, 'init_ShelterA_1_118': 740.0, 'init_ShelterA_1_121': 740.0, 'init_ShelterA_1_113': 750.0, 'init_ShelterA_1_117': 750.0, 'init_ShelterA_1_126': 750.0, 'init_ShelterA_1_128': 750.0, 'init_ShelterA_1_129': 750.0, 'init_ShelterA_1_111': 760.0, 'init_ShelterA_1_115': 760.0, 'init_ShelterA_1_130': 760.0, 'init_ShelterA_2_185': 760.0, 'init_ShelterA_1_132': 770.0, 'init_ShelterA_1_133': 770.0, 'init_ShelterA_1_136': 770.0, 'init_ShelterA_1_137': 770.0, 'init_ShelterA_1_187': 770.0, 'init_ShelterA_1_191': 770.0, 'init_ShelterA_1_134': 780.0, 'init_ShelterA_1_138': 780.0, 'init_ShelterA_1_197': 820.0, 'init_ShelterA_1_199': 820.0, 'init_ShelterA_1_200': 820.0, 'init_ShelterA_2_198': 820.0, 'init_ShelterA_1_144': 840.0, 'init_ShelterA_1_146': 840.0, 'init_ShelterA_1_163': 850.0, 'init_ShelterA_1_165': 850.0, 'init_ShelterA_1_168': 860.0, 'init_ShelterA_1_164': 870.0, 'init_ShelterA_1_215': 870.0, 'init_ShelterA_2_208': 870.0, 'init_ShelterA_1_207': 890.0, 'init_ShelterA_1_209': 890.0, 'init_ShelterA_1_210': 890.0, 'init_ShelterA_1_211': 890.0, 'init_ShelterA_1_212': 890.0, 'init_ShelterA_1_213': 890.0, 'init_ShelterA_1_217': 910.0, 'init_ShelterA_1_218': 910.0, 'init_ShelterA_1_219': 910.0, 'init_ShelterA_1_220': 910.0, 'init_ShelterA_1_167': 920.0, 'init_ShelterA_1_182': 940.0, 'init_ShelterA_1_184': 940.0, 'init_ShelterA_1_186': 940.0, 'init_ShelterA_1_183': 950.0, 'init_ShelterA_1_181': 960.0, 'init_ShelterA_1_237': 980.0, 'init_ShelterA_1_239': 980.0, 'init_ShelterA_1_240': 980.0, 'init_ShelterA_2_238': 980.0, 'init_ShelterA_1_233': 990.0, 'init_ShelterA_1_234': 990.0, 'init_ShelterA_1_235': 990.0, 'init_ShelterA_1_236': 990.0, 'init_ShelterA_2_249': 1050.0, 'init_ShelterA_1_251': 1060.0, 'init_ShelterA_1_254': 1060.0, 'init_ShelterA_1_259': 1060.0, 'init_ShelterA_2_248': 1060.0, 'init_ShelterA_2_258': 1060.0, 'init_ShelterA_1_250': 1070.0, 'init_ShelterA_1_256': 1070.0, 'init_ShelterA_1_263': 1070.0, 'init_ShelterA_2_205': 1080.0, 'init_ShelterA_1_189': 1090.0, 'init_ShelterA_1_192': 1090.0, 'init_ShelterA_1_203': 1090.0, 'init_ShelterA_1_206': 1090.0, 'init_ShelterA_1_195': 1110.0, 'init_ShelterA_1_269': 1110.0, 'init_ShelterA_1_270': 1110.0, 'init_ShelterA_1_268': 1120.0, 'init_ShelterA_1_223': 1130.0, 'init_ShelterA_1_226': 1200.0, 'init_ShelterA_1_230': 1200.0, 'init_ShelterA_1_285': 1240.0, 'init_ShelterA_1_286': 1240.0, 'init_ShelterA_1_287': 1240.0, 'init_ShelterA_1_290': 1240.0, 'init_ShelterA_1_244': 1260.0, 'init_ShelterA_1_224': 1270.0, 'init_ShelterA_1_229': 1270.0, 'init_ShelterA_1_260': 1270.0, 'init_ShelterA_1_221': 1280.0, 'init_ShelterA_1_225': 1280.0, 'init_ShelterA_1_264': 1300.0, 'init_ShelterA_2_266': 1300.0, 'init_ShelterA_1_301': 1320.0, 'init_ShelterA_2_302': 1320.0, 'init_ShelterA_2_307': 1320.0, 'init_ShelterA_1_261': 1330.0, 'init_ShelterA_1_310': 1330.0, 'init_ShelterA_2_272': 1350.0, 'init_ShelterA_1_245': 1360.0, 'init_ShelterA_1_273': 1360.0, 'init_ShelterA_1_276': 1360.0, 'init_ShelterA_1_277': 1360.0, 'init_ShelterA_2_311': 1360.0, 'init_ShelterA_1_292': 1400.0, 'init_ShelterA_2_327': 1400.0, 'init_ShelterA_1_318': 1410.0, 'init_ShelterA_1_322': 1410.0, 'init_ShelterA_2_329': 1410.0, 'init_ShelterA_1_280': 1430.0, 'init_ShelterA_1_278': 1440.0, 'init_ShelterA_1_279': 1440.0, 'init_ShelterA_1_284': 1440.0, 'init_ShelterA_1_265': 1450.0, 'init_ShelterA_1_298': 1480.0, 'init_ShelterA_1_300': 1480.0, 'init_ShelterA_1_340': 1480.0, 'init_ShelterA_1_341': 1480.0, 'init_ShelterA_1_342': 1480.0, 'init_ShelterA_1_343': 1480.0, 'init_ShelterA_1_344': 1480.0, 'init_ShelterA_1_345': 1480.0, 'init_ShelterA_1_346': 1480.0, 'init_ShelterA_1_347': 1480.0, 'init_ShelterA_1_309': 1490.0, 'init_ShelterA_1_304': 1520.0, 'init_ShelterA_1_308': 1520.0, 'init_ShelterA_1_373': 1580.0, 'init_ShelterA_1_367': 1590.0, 'init_ShelterA_1_333': 1610.0, 'init_ShelterA_1_303': 1630.0, 'init_ShelterA_1_339': 1640.0, 'init_ShelterA_1_384': 1660.0, 'init_ShelterA_1_391': 1660.0, 'init_ShelterA_1_392': 1660.0, 'init_ShelterA_1_381': 1670.0, 'init_ShelterA_1_382': 1670.0, 'init_ShelterA_1_383': 1670.0, 'init_ShelterA_1_385': 1670.0, 'init_ShelterA_1_387': 1670.0, 'init_ShelterA_1_390': 1670.0, 'init_ShelterA_1_393': 1670.0, 'init_ShelterA_1_394': 1670.0, 'init_ShelterA_1_395': 1670.0, 'init_ShelterA_2_396': 1670.0, 'init_ShelterA_1_349': 1680.0, 'init_ShelterA_1_338': 1690.0, 'init_ShelterA_1_348': 1690.0, 'init_ShelterA_2_352': 1690.0, 'init_ShelterA_1_354': 1700.0, 'init_ShelterA_1_356': 1700.0, 'init_ShelterA_1_366': 1730.0, 'init_ShelterA_1_372': 1740.0, 'init_ShelterA_1_370': 1780.0, 'init_ShelterA_1_361': 1790.0, 'init_ShelterA_1_362': 1790.0, 'init_ShelterA_1_363': 1790.0, 'init_ShelterA_1_360': 1800.0, 'init_ShelterA_1_335': 1810.0, 'init_ShelterA_1_337': 1810.0, 'init_ShelterA_1_334': 1820.0, 'init_ShelterA_1_355': 1820.0, 'init_ShelterA_1_379': 1820.0, 'init_ShelterA_1_331': 1830.0, 'init_ShelterA_1_332': 1830.0, 'init_ShelterA_1_376': 1860.0, 'init_ShelterA_1_375': 1870.0, 'init_ShelterA_1_397': 1870.0, 'init_ShelterA_1_398': 1870.0}
pedestrian_count:0
route_changed_vehicle_count:262
route_change_event_count:262
rate_vehicle_abandonment:0.00%
wrong_way_driving_count:0
vehicle_abandonment_count:0
normalcy_bias_route_change_count:157
majority_bias_route_change_count:105
lane_changed_vehicle_count:0
info_obtained_lanechange_count:0
elapsed_time_lanechange_count:0
majority_bias_lanechange_count:0

=== Job Result ===
end=2026-07-13T01:15:20+0900
elapsed_seconds=480
exit_code=0
status=SUCCESS
