=== Job Info ===
job_name=va_s12_e1.0_v1.0_r6
host=schubert
pid=135823
scenario=12
early_rate=1.0
v2v_rate=1.0
run_id=6
config=/home/katagi/vehicle-assistant-system/scenarios/JIP/configs/config_scenario_12.toml
output_dir=/home/katagi/vehicle-assistant-system/schubert_logs/va_s12_e1.0_v1.0_r6
start=2026-07-13T03:13:38+0900
python_version=Python 3.12.3
sumo_version=Eclipse SUMO sumo Version v1_23_1+0435-630512a

=== Command ===
cd /home/katagi/vehicle-assistant-system/schubert_logs/va_s12_e1.0_v1.0_r6
PYTHONPATH=/home/katagi/vehicle-assistant-system:/home/katagi/tmp/sumo/tools:/home/katagi/local/sumo/tools:/home/katagi/tmp/sumo/tools:/home/katagi/local/sumo/tools:/home/katagi/tmp/sumo/tools:/home/katagi/local/sumo/tools: python3 -W ignore::UserWarning -m scenarios.JIP.1-1-4.simulation.runner_simulator --nogui /home/katagi/vehicle-assistant-system/scenarios/JIP/configs/config_scenario_12.toml 1.0 1.0
simulation_pid=135843
Step #0.00 (0ms ?*RT. ?UPS, TraCI: 338ms, vehicles TOT 1 ACT 1 BUF 0)                     Step #100.00 (0ms ?*RT. ?UPS, TraCI: 18ms, vehicles TOT 26 ACT 26 BUF 0)                  Step #200.00 (0ms ?*RT. ?UPS, TraCI: 37ms, vehicles TOT 51 ACT 51 BUF 0)                  Step #300.00 (1ms ~= 1000.00*RT, ~77000.00UPS, TraCI: 39ms, vehicles TOT 77 ACT 77 BUF 0) Step #400.00 (0ms ?*RT. ?UPS, TraCI: 72ms, vehicles TOT 104 ACT 104 BUF 0)                Step #500.00 (1ms ~= 1000.00*RT, ~131000.00UPS, TraCI: 1703ms, vehicles TOT 131 ACT 131 BUStep #600.00 (0ms ?*RT. ?UPS, TraCI: 1239ms, vehicles TOT 158 ACT 158 BUF 0)              Step #700.00 (0ms ?*RT. ?UPS, TraCI: 189ms, vehicles TOT 186 ACT 186 BUF 0)               Step #800.00 (1ms ~= 1000.00*RT, ~208000.00UPS, TraCI: 247ms, vehicles TOT 208 ACT 208 BUFStep #900.00 (1ms ~= 1000.00*RT, ~212000.00UPS, TraCI: 1252ms, vehicles TOT 237 ACT 212 BUStep #1000.00 (0ms ?*RT. ?UPS, TraCI: 1193ms, vehicles TOT 267 ACT 233 BUF 41)            Step #1100.00 (1ms ~= 1000.00*RT, ~256000.00UPS, TraCI: 476ms, vehicles TOT 303 ACT 256 BUStep #1200.00 (1ms ~= 1000.00*RT, ~278000.00UPS, TraCI: 1151ms, vehicles TOT 335 ACT 278 BStep #1300.00 (1ms ~= 1000.00*RT, ~301000.00UPS, TraCI: 1815ms, vehicles TOT 363 ACT 301 BStep #1400.00 (1ms ~= 1000.00*RT, ~319000.00UPS, TraCI: 1444ms, vehicles TOT 398 ACT 319 BStep #1500.00 (1ms ~= 1000.00*RT, ~334000.00UPS, TraCI: 1449ms, vehicles TOT 435 ACT 334 BStep #1600.00 (1ms ~= 1000.00*RT, ~356000.00UPS, TraCI: 1686ms, vehicles TOT 472 ACT 356 BStep #1700.00 (1ms ~= 1000.00*RT, ~386000.00UPS, TraCI: 845ms, vehicles TOT 508 ACT 386 BUStep #1800.00 (1ms ~= 1000.00*RT, ~400000.00UPS, TraCI: 738ms, vehicles TOT 526 ACT 400 BUStep #1900.00 (1ms ~= 1000.00*RT, ~400000.00UPS, TraCI: 279ms, vehicles TOT 526 ACT 400 BUStep #2000.00 (0ms ?*RT. ?UPS, TraCI: 200ms, vehicles TOT 526 ACT 400 BUF 0)              Step #2100.00 (0ms ?*RT. ?UPS, TraCI: 126ms, vehicles TOT 526 ACT 400 BUF 0)              Step #2200.00 (1ms ~= 1000.00*RT, ~400000.00UPS, TraCI: 114ms, vehicles TOT 526 ACT 400 BUStep #2300.00 (0ms ?*RT. ?UPS, TraCI: 105ms, vehicles TOT 526 ACT 400 BUF 0)              Step #2400.00 (1ms ~= 1000.00*RT, ~400000.00UPS, TraCI: 99ms, vehicles TOT 526 ACT 400 BUFStep #2500.00 (0ms ?*RT. ?UPS, TraCI: 95ms, vehicles TOT 526 ACT 400 BUF 0)               Step #2600.00 (1ms ~= 1000.00*RT, ~400000.00UPS, TraCI: 79ms, vehicles TOT 526 ACT 400 BUFStep #2700.00 (0ms ?*RT. ?UPS, TraCI: 77ms, vehicles TOT 526 ACT 400 BUF 0)               Step #2800.00 (0ms ?*RT. ?UPS, TraCI: 79ms, vehicles TOT 526 ACT 400 BUF 0)               Step #2900.00 (0ms ?*RT. ?UPS, TraCI: 79ms, vehicles TOT 526 ACT 400 BUF 0)               Step #3000.00 (0ms ?*RT. ?UPS, TraCI: 79ms, vehicles TOT 526 ACT 400 BUF 0)               
 Retrying in 1 seconds
出現数: {'A1': 360, 'A2': 40}
割合:
  Total: 400
  A1: 360 (90.00%)
  A2: 40 (10.00%)
  B1: 0 (0.00%)
  B2: 0 (0.00%)
mean elapsed_time: 599.395
OK all vehs arrived 
平均渋滞継続時間: 508.23秒
OK all vehicle abandonment were detected
266
134
===== Simlation Result Summary =====
avg_congestion_duration: 508.23 
arrival_time_by_vehID_dict:{'init_ShelterA_1_0': 208.0, 'init_ShelterA_1_1': 230.0, 'init_ShelterA_1_2': 237.0, 'init_ShelterA_1_3': 244.0, 'init_ShelterA_1_4': 249.0, 'init_ShelterA_1_5': 253.0, 'init_ShelterA_1_6': 290.0, 'init_ShelterA_1_7': 296.0, 'init_ShelterA_1_8': 302.0, 'init_ShelterA_1_9': 308.0, 'init_ShelterA_1_10': 314.0, 'init_ShelterA_1_11': 320.0, 'init_ShelterA_1_12': 327.0, 'init_ShelterA_1_13': 336.0, 'init_ShelterA_1_14': 344.0, 'init_ShelterA_1_15': 353.0, 'init_ShelterA_1_16': 362.0, 'init_ShelterA_1_17': 371.0, 'init_ShelterA_1_18': 381.0, 'init_ShelterA_1_20': 390.0, 'init_ShelterA_1_21': 400.0, 'init_ShelterA_1_22': 409.0, 'init_ShelterA_1_23': 419.0, 'init_ShelterA_1_24': 429.0, 'init_ShelterA_1_25': 438.0, 'init_ShelterA_2_19': 439.0, 'init_ShelterA_1_26': 448.0, 'init_ShelterA_1_27': 458.0, 'init_ShelterA_1_28': 468.0, 'init_ShelterA_1_29': 477.0, 'init_ShelterA_1_30': 487.0, 'init_ShelterA_1_31': 497.0, 'init_ShelterA_2_34': 505.0, 'init_ShelterA_1_32': 506.0, 'init_ShelterA_1_33': 516.0, 'init_ShelterA_1_35': 525.0, 'init_ShelterA_1_36': 535.0, 'init_ShelterA_1_37': 544.0, 'init_ShelterA_1_38': 554.0, 'init_ShelterA_1_39': 564.0, 'init_ShelterA_2_41': 567.0, 'init_ShelterA_1_40': 573.0, 'init_ShelterA_1_42': 583.0, 'init_ShelterA_1_43': 592.0, 'init_ShelterA_2_44': 595.0, 'init_ShelterA_2_48': 600.0, 'init_ShelterA_1_45': 602.0, 'init_ShelterA_1_46': 611.0, 'init_ShelterA_1_47': 621.0, 'init_ShelterA_1_49': 630.0, 'init_ShelterA_1_50': 639.0, 'init_ShelterA_1_51': 649.0, 'init_ShelterA_1_57': 656.0, 'init_ShelterA_1_52': 658.0, 'init_ShelterA_1_59': 658.0, 'init_ShelterA_1_60': 661.0, 'init_ShelterA_1_53': 667.0, 'init_ShelterA_1_54': 677.0, 'init_ShelterA_1_61': 678.0, 'init_ShelterA_1_62': 680.0, 'init_ShelterA_1_63': 683.0, 'init_ShelterA_1_55': 686.0, 'init_ShelterA_1_64': 686.0, 'init_ShelterA_1_65': 693.0, 'init_ShelterA_1_56': 695.0, 'init_ShelterA_1_66': 695.0, 'init_ShelterA_1_67': 699.0, 'init_ShelterA_1_58': 702.0, 'init_ShelterA_2_72': 704.0, 'init_ShelterA_1_68': 705.0, 'init_ShelterA_1_69': 707.0, 'init_ShelterA_2_81': 707.0, 'init_ShelterA_2_82': 709.0, 'init_ShelterA_1_70': 710.0, 'init_ShelterA_1_71': 713.0, 'init_ShelterA_1_73': 716.0, 'init_ShelterA_2_91': 732.0, 'init_ShelterA_1_74': 741.0, 'init_ShelterA_2_101': 753.0, 'init_ShelterA_1_75': 755.0, 'init_ShelterA_1_76': 757.0, 'init_ShelterA_1_77': 767.0, 'init_ShelterA_1_78': 769.0, 'init_ShelterA_1_79': 772.0, 'init_ShelterA_1_80': 775.0, 'init_ShelterA_1_83': 777.0, 'init_ShelterA_1_84': 780.0, 'init_ShelterA_1_85': 783.0, 'init_ShelterA_1_86': 786.0, 'init_ShelterA_1_87': 789.0, 'init_ShelterA_1_88': 792.0, 'init_ShelterA_1_89': 810.0, 'init_ShelterA_1_90': 816.0, 'init_ShelterA_1_92': 825.0, 'init_ShelterA_1_93': 826.0, 'init_ShelterA_1_94': 829.0, 'init_ShelterA_1_115': 845.0, 'init_ShelterA_1_95': 862.0, 'init_ShelterA_1_96': 864.0, 'init_ShelterA_1_97': 866.0, 'init_ShelterA_1_98': 868.0, 'init_ShelterA_1_99': 872.0, 'init_ShelterA_1_100': 875.0, 'init_ShelterA_1_102': 877.0, 'init_ShelterA_1_103': 880.0, 'init_ShelterA_1_104': 883.0, 'init_ShelterA_1_105': 893.0, 'init_ShelterA_2_123': 900.0, 'init_ShelterA_1_106': 922.0, 'init_ShelterA_1_126': 932.0, 'init_ShelterA_2_127': 934.0, 'init_ShelterA_2_132': 936.0, 'init_ShelterA_2_133': 939.0, 'init_ShelterA_1_107': 940.0, 'init_ShelterA_1_108': 941.0, 'init_ShelterA_1_109': 943.0, 'init_ShelterA_1_110': 946.0, 'init_ShelterA_1_111': 949.0, 'init_ShelterA_1_112': 952.0, 'init_ShelterA_1_113': 955.0, 'init_ShelterA_1_114': 958.0, 'init_ShelterA_1_116': 961.0, 'init_ShelterA_1_117': 964.0, 'init_ShelterA_1_118': 967.0, 'init_ShelterA_1_119': 970.0, 'init_ShelterA_1_120': 972.0, 'init_ShelterA_1_141': 1010.0, 'init_ShelterA_2_142': 1012.0, 'init_ShelterA_2_150': 1016.0, 'init_ShelterA_2_152': 1019.0, 'init_ShelterA_1_121': 1024.0, 'init_ShelterA_1_122': 1026.0, 'init_ShelterA_1_124': 1029.0, 'init_ShelterA_1_125': 1032.0, 'init_ShelterA_1_128': 1034.0, 'init_ShelterA_1_129': 1037.0, 'init_ShelterA_1_130': 1040.0, 'init_ShelterA_1_131': 1048.0, 'init_ShelterA_1_134': 1050.0, 'init_ShelterA_1_135': 1052.0, 'init_ShelterA_1_136': 1055.0, 'init_ShelterA_1_137': 1058.0, 'init_ShelterA_1_138': 1089.0, 'init_ShelterA_1_139': 1092.0, 'init_ShelterA_1_156': 1096.0, 'init_ShelterA_2_161': 1098.0, 'init_ShelterA_1_140': 1111.0, 'init_ShelterA_1_143': 1113.0, 'init_ShelterA_1_144': 1115.0, 'init_ShelterA_1_145': 1125.0, 'init_ShelterA_1_146': 1126.0, 'init_ShelterA_1_147': 1129.0, 'init_ShelterA_1_148': 1131.0, 'init_ShelterA_1_149': 1134.0, 'init_ShelterA_1_151': 1136.0, 'init_ShelterA_1_153': 1139.0, 'init_ShelterA_1_154': 1142.0, 'init_ShelterA_2_176': 1179.0, 'init_ShelterA_2_177': 1188.0, 'init_ShelterA_1_155': 1196.0, 'init_ShelterA_1_157': 1198.0, 'init_ShelterA_1_158': 1200.0, 'init_ShelterA_1_159': 1202.0, 'init_ShelterA_1_160': 1205.0, 'init_ShelterA_1_162': 1208.0, 'init_ShelterA_1_163': 1211.0, 'init_ShelterA_1_208': 1213.0, 'init_ShelterA_1_164': 1225.0, 'init_ShelterA_1_165': 1228.0, 'init_ShelterA_1_166': 1230.0, 'init_ShelterA_1_167': 1232.0, 'init_ShelterA_1_168': 1234.0, 'init_ShelterA_1_169': 1236.0, 'init_ShelterA_1_170': 1239.0, 'init_ShelterA_1_171': 1242.0, 'init_ShelterA_2_213': 1261.0, 'init_ShelterA_1_215': 1277.0, 'init_ShelterA_2_216': 1279.0, 'init_ShelterA_1_172': 1282.0, 'init_ShelterA_1_173': 1284.0, 'init_ShelterA_1_174': 1286.0, 'init_ShelterA_1_175': 1288.0, 'init_ShelterA_1_178': 1290.0, 'init_ShelterA_1_179': 1294.0, 'init_ShelterA_1_180': 1296.0, 'init_ShelterA_1_181': 1299.0, 'init_ShelterA_1_182': 1302.0, 'init_ShelterA_1_183': 1324.0, 'init_ShelterA_1_209': 1326.0, 'init_ShelterA_1_211': 1328.0, 'newveh_ShelterA_2_184_0': 1346.0, 'init_ShelterA_1_212': 1348.0, 'init_ShelterA_1_214': 1351.0, 'init_ShelterA_1_217': 1370.0, 'newveh_ShelterA_1_210_24': 1391.0, 'newveh_ShelterA_2_185_1': 1391.0, 'newveh_ShelterA_2_186_2': 1398.0, 'newveh_ShelterA_2_187_3': 1404.0, 'newveh_ShelterA_2_188_4': 1409.0, 'newveh_ShelterA_2_189_5': 1415.0, 'newveh_ShelterA_2_190_6': 1421.0, 'newveh_ShelterA_2_191_7': 1426.0, 'newveh_ShelterA_2_192_8': 1432.0, 'newveh_ShelterA_2_193_9': 1438.0, 'newveh_ShelterA_2_194_10': 1446.0, 'newveh_ShelterA_2_195_11': 1452.0, 'newveh_ShelterA_2_196_12': 1456.0, 'newveh_ShelterA_2_197_13': 1460.0, 'newveh_ShelterA_2_198_14': 1472.0, 'init_ShelterA_1_244': 1474.0, 'newveh_ShelterA_2_199_15': 1479.0, 'newveh_ShelterA_2_200_16': 1485.0, 'newveh_ShelterA_2_201_17': 1490.0, 'init_ShelterA_1_254': 1492.0, 'newveh_ShelterA_2_202_18': 1496.0, 'newveh_ShelterA_1_239_56': 1498.0, 'newveh_ShelterA_2_203_19': 1503.0, 'newveh_ShelterA_2_204_20': 1510.0, 'newveh_ShelterA_2_205_21': 1516.0, 'newveh_ShelterA_2_206_22': 1524.0, 'newveh_ShelterA_2_207_23': 1545.0, 'init_ShelterA_1_218': 1547.0, 'newveh_ShelterA_1_228_26': 1547.0, 'init_ShelterA_1_219': 1549.0, 'init_ShelterA_1_220': 1551.0, 'newveh_ShelterA_1_224_25': 1552.0, 'init_ShelterA_1_221': 1553.0, 'init_ShelterA_1_222': 1556.0, 'newveh_ShelterA_2_238_54': 1566.0, 'init_ShelterA_1_272': 1582.0, 'newveh_ShelterA_2_240_55': 1582.0, 'init_ShelterA_1_225': 1584.0, 'init_ShelterA_1_226': 1586.0, 'init_ShelterA_1_229': 1588.0, 'init_ShelterA_1_230': 1590.0, 'init_ShelterA_1_232': 1592.0, 'init_ShelterA_1_234': 1594.0, 'init_ShelterA_1_241': 1597.0, 'init_ShelterA_1_242': 1600.0, 'init_ShelterA_1_243': 1603.0, 'init_ShelterA_1_245': 1606.0, 'init_ShelterA_1_246': 1609.0, 'init_ShelterA_1_248': 1612.0, 'init_ShelterA_1_251': 1615.0, 'init_ShelterA_1_252': 1618.0, 'init_ShelterA_1_257': 1621.0, 'init_ShelterA_1_258': 1625.0, 'newveh_ShelterA_1_253_34': 1651.0, 'newveh_ShelterA_2_233_29': 1664.0, 'newveh_ShelterA_2_231_28': 1685.0, 'init_ShelterA_1_265': 1687.0, 'newveh_ShelterA_2_227_27': 1697.0, 'init_ShelterA_1_267': 1699.0, 'newveh_ShelterA_2_237_33': 1708.0, 'newveh_ShelterA_2_236_32': 1717.0, 'newveh_ShelterA_1_266_46': 1724.0, 'newveh_ShelterA_2_235_31': 1725.0, 'init_ShelterA_1_269': 1727.0, 'newveh_ShelterA_2_223_30': 1738.0, 'init_ShelterA_1_299': 1739.0, 'init_ShelterA_1_275': 1740.0, 'init_ShelterA_1_277': 1742.0, 'init_ShelterA_1_300': 1746.0, 'newveh_ShelterA_1_279_48': 1751.0, 'newveh_ShelterA_2_276_74': 1751.0, 'newveh_ShelterA_1_282_52': 1758.0, 'newveh_ShelterA_2_268_73': 1760.0, 'init_ShelterA_1_314': 1763.0, 'init_ShelterA_1_315': 1767.0, 'newveh_ShelterA_2_285_77': 1768.0, 'newveh_ShelterA_2_283_76': 1778.0, 'newveh_ShelterA_2_296_80': 1799.0, 'init_ShelterA_1_278': 1801.0, 'init_ShelterA_1_280': 1803.0, 'init_ShelterA_1_281': 1805.0, 'init_ShelterA_1_284': 1807.0, 'init_ShelterA_1_286': 1809.0, 'init_ShelterA_1_287': 1812.0, 'init_ShelterA_1_320': 1813.0, 'init_ShelterA_1_288': 1815.0, 'init_ShelterA_2_323': 1816.0, 'init_ShelterA_1_289': 1817.0, 'init_ShelterA_1_290': 1820.0, 'newveh_ShelterA_2_255_36': 1828.0, 'init_ShelterA_2_343': 1833.0, 'newveh_ShelterA_2_250_35': 1833.0, 'newveh_ShelterA_2_260_37': 1842.0, 'newveh_ShelterA_2_247_38': 1851.0, 'newveh_ShelterA_2_264_45': 1860.0, 'newveh_ShelterA_2_263_44': 1869.0, 'newveh_ShelterA_2_262_43': 1879.0, 'newveh_ShelterA_2_318_104': 1888.0, 'newveh_ShelterA_2_313_103': 1898.0, 'newveh_ShelterA_2_301_102': 1908.0, 'newveh_ShelterA_2_319_106': 1917.0, 'newveh_ShelterA_2_261_42': 1927.0, 'init_ShelterA_1_373': 1937.0, 'newveh_ShelterA_2_259_41': 1937.0, 'newveh_ShelterA_2_256_40': 1946.0, 'newveh_ShelterA_2_249_39': 1957.0, 'init_ShelterA_1_297': 1959.0, 'init_ShelterA_1_298': 1962.0, 'newveh_ShelterA_2_273_47': 1971.0, 'newveh_ShelterA_2_270_49': 1981.0, 'newveh_ShelterA_2_271_50': 1991.0, 'newveh_ShelterA_2_274_51': 2000.0, 'newveh_ShelterA_1_316_72': 2009.0, 'newveh_ShelterA_2_317_105': 2010.0, 'newveh_ShelterA_1_321_75': 2014.0, 'newveh_ShelterA_2_340_120': 2020.0, 'init_ShelterA_1_384': 2021.0, 'init_ShelterA_1_322': 2022.0, 'newveh_ShelterA_1_328_78': 2040.0, 'newveh_ShelterA_2_291_53': 2044.0, 'init_ShelterA_1_324': 2047.0, 'init_ShelterA_1_325': 2049.0, 'init_ShelterA_1_326': 2051.0, 'init_ShelterA_1_327': 2053.0, 'init_ShelterA_1_330': 2055.0, 'init_ShelterA_1_331': 2058.0, 'init_ShelterA_1_332': 2060.0, 'init_ShelterA_1_333': 2062.0, 'init_ShelterA_1_334': 2064.0, 'init_ShelterA_1_341': 2066.0, 'init_ShelterA_1_342': 2069.0, 'init_ShelterA_1_344': 2072.0, 'newveh_ShelterA_2_338_119': 2081.0, 'newveh_ShelterA_2_337_118': 2088.0, 'newveh_ShelterA_2_336_117': 2096.0, 'newveh_ShelterA_2_335_116': 2105.0, 'newveh_ShelterA_1_329_79': 2106.0, 'newveh_ShelterA_2_339_121': 2114.0, 'newveh_ShelterA_2_292_57': 2123.0, 'newveh_ShelterA_2_293_58': 2132.0, 'newveh_ShelterA_2_295_60': 2142.0, 'newveh_ShelterA_2_294_59': 2156.0, 'init_ShelterA_1_350': 2158.0, 'init_ShelterA_1_352': 2160.0, 'init_ShelterA_1_353': 2162.0, 'newveh_ShelterA_2_303_61': 2171.0, 'newveh_ShelterA_1_346_86': 2176.0, 'newveh_ShelterA_2_302_63': 2180.0, 'newveh_ShelterA_1_367_100': 2188.0, 'newveh_ShelterA_2_309_62': 2194.0, 'init_ShelterA_1_370': 2196.0, 'init_ShelterA_1_371': 2198.0, 'newveh_ShelterA_1_366_99': 2199.0, 'init_ShelterA_1_372': 2200.0, 'newveh_ShelterA_1_368_101': 2204.0, 'newveh_ShelterA_2_304_64': 2208.0, 'newveh_ShelterA_2_305_65': 2216.0, 'newveh_ShelterA_2_369_122': 2225.0, 'newveh_ShelterA_2_388_125': 2234.0, 'newveh_ShelterA_2_386_124': 2243.0, 'newveh_ShelterA_2_307_67': 2253.0, 'newveh_ShelterA_2_306_66': 2263.0, 'newveh_ShelterA_2_310_69': 2272.0, 'newveh_ShelterA_2_308_68': 2282.0, 'newveh_ShelterA_2_311_70': 2291.0, 'newveh_ShelterA_2_312_71': 2313.0, 'init_ShelterA_1_382': 2315.0, 'init_ShelterA_1_387': 2317.0, 'init_ShelterA_1_389': 2320.0, 'init_ShelterA_1_390': 2321.0, 'init_ShelterA_1_391': 2323.0, 'init_ShelterA_1_392': 2326.0, 'init_ShelterA_1_393': 2328.0, 'newveh_ShelterA_2_385_123': 2349.0, 'init_ShelterA_1_394': 2352.0, 'init_ShelterA_1_395': 2354.0, 'init_ShelterA_1_396': 2356.0, 'init_ShelterA_1_397': 2358.0, 'init_ShelterA_1_398': 2360.0, 'init_ShelterA_1_399': 2363.0, 'newveh_ShelterA_2_354_83': 2370.0, 'newveh_ShelterA_2_351_82': 2375.0, 'newveh_ShelterA_2_345_81': 2383.0, 'newveh_ShelterA_2_356_85': 2393.0, 'newveh_ShelterA_2_355_84': 2402.0, 'newveh_ShelterA_2_358_89': 2412.0, 'newveh_ShelterA_2_357_88': 2421.0, 'newveh_ShelterA_2_360_91': 2431.0, 'newveh_ShelterA_2_359_90': 2441.0, 'newveh_ShelterA_2_363_96': 2451.0, 'newveh_ShelterA_2_362_95': 2460.0, 'newveh_ShelterA_2_361_94': 2470.0, 'newveh_ShelterA_2_347_87': 2480.0, 'newveh_ShelterA_2_349_93': 2489.0, 'newveh_ShelterA_2_348_92': 2499.0, 'newveh_ShelterA_2_364_97': 2509.0, 'newveh_ShelterA_2_365_98': 2518.0, 'newveh_ShelterA_2_379_110': 2528.0, 'newveh_ShelterA_2_377_109': 2538.0, 'newveh_ShelterA_2_376_108': 2547.0, 'newveh_ShelterA_2_374_107': 2557.0, 'newveh_ShelterA_2_375_111': 2567.0, 'newveh_ShelterA_2_378_112': 2576.0, 'newveh_ShelterA_2_380_113': 2582.0, 'newveh_ShelterA_2_383_115': 2587.0, 'newveh_ShelterA_2_381_114': 2591.0}
vehicle_abandant_time_by_pedestrianID_dict:{}
walking_distance_by_pedestrianID_dict:{}
route_change_time_by_vehID_dict:{'init_ShelterA_1_59': 460.0, 'init_ShelterA_1_60': 460.0, 'init_ShelterA_1_61': 460.0, 'init_ShelterA_1_62': 460.0, 'init_ShelterA_1_64': 460.0, 'init_ShelterA_1_65': 460.0, 'init_ShelterA_1_66': 460.0, 'init_ShelterA_1_67': 460.0, 'init_ShelterA_1_68': 460.0, 'init_ShelterA_1_69': 460.0, 'init_ShelterA_1_70': 460.0, 'init_ShelterA_1_57': 470.0, 'init_ShelterA_1_63': 470.0, 'init_ShelterA_1_77': 490.0, 'init_ShelterA_1_71': 500.0, 'init_ShelterA_1_73': 500.0, 'init_ShelterA_1_74': 500.0, 'init_ShelterA_1_75': 500.0, 'init_ShelterA_2_72': 500.0, 'init_ShelterA_1_76': 510.0, 'init_ShelterA_1_78': 510.0, 'init_ShelterA_1_80': 520.0, 'init_ShelterA_1_84': 520.0, 'init_ShelterA_2_81': 520.0, 'init_ShelterA_2_82': 520.0, 'init_ShelterA_1_79': 550.0, 'init_ShelterA_1_83': 550.0, 'init_ShelterA_1_85': 550.0, 'init_ShelterA_1_86': 550.0, 'init_ShelterA_1_87': 560.0, 'init_ShelterA_1_89': 570.0, 'init_ShelterA_1_90': 580.0, 'init_ShelterA_2_91': 580.0, 'init_ShelterA_1_92': 590.0, 'init_ShelterA_1_93': 590.0, 'init_ShelterA_1_94': 590.0, 'init_ShelterA_1_100': 600.0, 'init_ShelterA_1_88': 600.0, 'init_ShelterA_1_95': 600.0, 'init_ShelterA_1_97': 600.0, 'init_ShelterA_1_98': 600.0, 'init_ShelterA_2_101': 600.0, 'init_ShelterA_1_103': 610.0, 'init_ShelterA_1_105': 610.0, 'init_ShelterA_1_106': 610.0, 'init_ShelterA_1_96': 610.0, 'init_ShelterA_1_99': 610.0, 'init_ShelterA_1_102': 650.0, 'init_ShelterA_1_107': 670.0, 'init_ShelterA_1_108': 670.0, 'init_ShelterA_1_109': 670.0, 'init_ShelterA_1_104': 680.0, 'init_ShelterA_1_112': 680.0, 'init_ShelterA_1_113': 680.0, 'init_ShelterA_1_114': 680.0, 'init_ShelterA_1_116': 680.0, 'init_ShelterA_1_117': 680.0, 'init_ShelterA_1_118': 680.0, 'init_ShelterA_1_110': 690.0, 'init_ShelterA_1_111': 690.0, 'init_ShelterA_1_119': 690.0, 'init_ShelterA_1_120': 690.0, 'init_ShelterA_1_121': 690.0, 'init_ShelterA_1_122': 690.0, 'init_ShelterA_2_123': 690.0, 'init_ShelterA_1_124': 750.0, 'init_ShelterA_1_125': 750.0, 'init_ShelterA_1_129': 760.0, 'init_ShelterA_1_130': 760.0, 'init_ShelterA_2_127': 760.0, 'init_ShelterA_2_132': 760.0, 'init_ShelterA_2_133': 760.0, 'init_ShelterA_1_128': 770.0, 'init_ShelterA_1_131': 770.0, 'init_ShelterA_1_134': 770.0, 'init_ShelterA_1_135': 770.0, 'init_ShelterA_1_136': 770.0, 'init_ShelterA_1_137': 770.0, 'init_ShelterA_1_138': 770.0, 'init_ShelterA_1_139': 770.0, 'init_ShelterA_1_140': 780.0, 'init_ShelterA_1_184': 810.0, 'init_ShelterA_1_185': 810.0, 'init_ShelterA_1_186': 810.0, 'init_ShelterA_1_187': 810.0, 'init_ShelterA_1_188': 810.0, 'init_ShelterA_1_189': 810.0, 'init_ShelterA_1_190': 810.0, 'init_ShelterA_1_191': 810.0, 'init_ShelterA_1_192': 810.0, 'init_ShelterA_1_193': 810.0, 'init_ShelterA_1_194': 810.0, 'init_ShelterA_1_195': 810.0, 'init_ShelterA_1_196': 810.0, 'init_ShelterA_1_197': 810.0, 'init_ShelterA_1_198': 810.0, 'init_ShelterA_1_199': 810.0, 'init_ShelterA_1_200': 810.0, 'init_ShelterA_1_201': 810.0, 'init_ShelterA_1_202': 810.0, 'init_ShelterA_1_203': 810.0, 'init_ShelterA_1_204': 810.0, 'init_ShelterA_1_205': 810.0, 'init_ShelterA_1_206': 810.0, 'init_ShelterA_1_207': 810.0, 'init_ShelterA_2_142': 810.0, 'init_ShelterA_2_210': 810.0, 'init_ShelterA_1_143': 830.0, 'init_ShelterA_1_145': 840.0, 'init_ShelterA_1_144': 850.0, 'init_ShelterA_1_148': 850.0, 'init_ShelterA_1_149': 850.0, 'init_ShelterA_1_151': 850.0, 'init_ShelterA_2_150': 850.0, 'init_ShelterA_2_152': 850.0, 'init_ShelterA_1_146': 860.0, 'init_ShelterA_1_147': 860.0, 'init_ShelterA_1_153': 860.0, 'init_ShelterA_1_154': 860.0, 'init_ShelterA_1_155': 860.0, 'init_ShelterA_1_157': 860.0, 'init_ShelterA_1_158': 860.0, 'init_ShelterA_1_159': 860.0, 'init_ShelterA_2_161': 920.0, 'init_ShelterA_1_163': 930.0, 'init_ShelterA_1_164': 930.0, 'init_ShelterA_1_165': 930.0, 'init_ShelterA_1_167': 930.0, 'init_ShelterA_1_168': 930.0, 'init_ShelterA_1_169': 930.0, 'init_ShelterA_1_170': 930.0, 'init_ShelterA_1_171': 930.0, 'init_ShelterA_1_173': 930.0, 'init_ShelterA_1_162': 940.0, 'init_ShelterA_1_166': 940.0, 'init_ShelterA_1_175': 940.0, 'init_ShelterA_2_176': 940.0, 'init_ShelterA_2_177': 940.0, 'init_ShelterA_1_160': 950.0, 'init_ShelterA_1_172': 950.0, 'init_ShelterA_1_174': 950.0, 'init_ShelterA_2_224': 970.0, 'init_ShelterA_2_228': 970.0, 'init_ShelterA_1_227': 980.0, 'init_ShelterA_1_231': 980.0, 'init_ShelterA_1_233': 980.0, 'init_ShelterA_1_178': 990.0, 'init_ShelterA_1_179': 990.0, 'init_ShelterA_1_180': 990.0, 'init_ShelterA_1_181': 990.0, 'init_ShelterA_1_182': 990.0, 'init_ShelterA_1_223': 990.0, 'init_ShelterA_1_235': 990.0, 'init_ShelterA_1_236': 990.0, 'init_ShelterA_1_237': 990.0, 'init_ShelterA_2_213': 1010.0, 'init_ShelterA_1_212': 1020.0, 'init_ShelterA_1_209': 1030.0, 'init_ShelterA_1_211': 1030.0, 'init_ShelterA_1_214': 1030.0, 'init_ShelterA_1_217': 1030.0, 'init_ShelterA_2_216': 1030.0, 'init_ShelterA_1_183': 1040.0, 'init_ShelterA_2_253': 1050.0, 'init_ShelterA_1_250': 1060.0, 'init_ShelterA_1_255': 1060.0, 'init_ShelterA_1_260': 1060.0, 'init_ShelterA_1_247': 1070.0, 'init_ShelterA_1_249': 1070.0, 'init_ShelterA_1_256': 1070.0, 'init_ShelterA_1_259': 1070.0, 'init_ShelterA_1_261': 1070.0, 'init_ShelterA_1_262': 1070.0, 'init_ShelterA_1_263': 1070.0, 'init_ShelterA_1_264': 1070.0, 'init_ShelterA_2_266': 1080.0, 'init_ShelterA_1_273': 1130.0, 'init_ShelterA_2_279': 1130.0, 'init_ShelterA_1_270': 1140.0, 'init_ShelterA_1_271': 1140.0, 'init_ShelterA_1_274': 1140.0, 'init_ShelterA_2_282': 1140.0, 'init_ShelterA_1_291': 1170.0, 'init_ShelterA_1_238': 1190.0, 'init_ShelterA_1_240': 1190.0, 'init_ShelterA_2_239': 1190.0, 'init_ShelterA_1_218': 1200.0, 'init_ShelterA_1_246': 1210.0, 'init_ShelterA_1_245': 1220.0, 'init_ShelterA_1_251': 1220.0, 'init_ShelterA_1_292': 1230.0, 'init_ShelterA_1_293': 1230.0, 'init_ShelterA_1_294': 1230.0, 'init_ShelterA_1_295': 1250.0, 'init_ShelterA_1_232': 1260.0, 'init_ShelterA_1_242': 1260.0, 'init_ShelterA_1_243': 1260.0, 'init_ShelterA_1_219': 1270.0, 'init_ShelterA_1_230': 1270.0, 'init_ShelterA_1_241': 1270.0, 'init_ShelterA_1_221': 1280.0, 'init_ShelterA_1_222': 1280.0, 'init_ShelterA_1_225': 1280.0, 'init_ShelterA_1_226': 1280.0, 'init_ShelterA_1_229': 1280.0, 'init_ShelterA_1_234': 1280.0, 'init_ShelterA_1_220': 1290.0, 'init_ShelterA_1_252': 1300.0, 'init_ShelterA_1_258': 1300.0, 'init_ShelterA_1_303': 1300.0, 'init_ShelterA_1_248': 1310.0, 'init_ShelterA_1_257': 1310.0, 'init_ShelterA_1_309': 1310.0, 'init_ShelterA_1_302': 1320.0, 'init_ShelterA_1_304': 1320.0, 'init_ShelterA_1_305': 1320.0, 'init_ShelterA_1_306': 1320.0, 'init_ShelterA_1_307': 1320.0, 'init_ShelterA_1_308': 1320.0, 'init_ShelterA_1_310': 1320.0, 'init_ShelterA_1_311': 1320.0, 'init_ShelterA_1_312': 1320.0, 'init_ShelterA_2_316': 1330.0, 'init_ShelterA_1_268': 1350.0, 'init_ShelterA_1_276': 1350.0, 'init_ShelterA_2_321': 1350.0, 'init_ShelterA_1_283': 1360.0, 'init_ShelterA_1_285': 1360.0, 'init_ShelterA_1_286': 1360.0, 'init_ShelterA_1_281': 1370.0, 'init_ShelterA_1_284': 1370.0, 'init_ShelterA_1_278': 1380.0, 'init_ShelterA_1_280': 1380.0, 'init_ShelterA_2_328': 1380.0, 'init_ShelterA_1_275': 1390.0, 'init_ShelterA_1_277': 1390.0, 'init_ShelterA_1_269': 1400.0, 'init_ShelterA_1_288': 1410.0, 'init_ShelterA_2_329': 1410.0, 'init_ShelterA_1_289': 1420.0, 'init_ShelterA_1_290': 1420.0, 'init_ShelterA_1_287': 1430.0, 'init_ShelterA_1_296': 1440.0, 'init_ShelterA_1_265': 1450.0, 'init_ShelterA_1_267': 1450.0, 'init_ShelterA_1_345': 1470.0, 'init_ShelterA_1_351': 1470.0, 'init_ShelterA_1_354': 1470.0, 'init_ShelterA_1_355': 1470.0, 'init_ShelterA_1_356': 1470.0, 'init_ShelterA_2_346': 1470.0, 'init_ShelterA_1_347': 1480.0, 'init_ShelterA_1_357': 1480.0, 'init_ShelterA_1_358': 1480.0, 'init_ShelterA_1_359': 1480.0, 'init_ShelterA_1_360': 1480.0, 'init_ShelterA_1_348': 1490.0, 'init_ShelterA_1_349': 1490.0, 'init_ShelterA_1_361': 1490.0, 'init_ShelterA_1_362': 1490.0, 'init_ShelterA_1_363': 1490.0, 'init_ShelterA_1_364': 1490.0, 'init_ShelterA_1_365': 1500.0, 'init_ShelterA_2_366': 1500.0, 'init_ShelterA_2_367': 1500.0, 'init_ShelterA_2_368': 1510.0, 'init_ShelterA_1_297': 1520.0, 'init_ShelterA_1_298': 1520.0, 'init_ShelterA_1_301': 1520.0, 'init_ShelterA_1_313': 1520.0, 'init_ShelterA_1_318': 1520.0, 'init_ShelterA_1_317': 1530.0, 'init_ShelterA_1_319': 1530.0, 'init_ShelterA_1_322': 1550.0, 'init_ShelterA_2_323': 1550.0, 'init_ShelterA_1_325': 1560.0, 'init_ShelterA_1_332': 1560.0, 'init_ShelterA_1_333': 1560.0, 'init_ShelterA_1_334': 1560.0, 'init_ShelterA_1_324': 1570.0, 'init_ShelterA_1_374': 1580.0, 'init_ShelterA_1_376': 1580.0, 'init_ShelterA_1_377': 1580.0, 'init_ShelterA_1_379': 1580.0, 'init_ShelterA_1_375': 1590.0, 'init_ShelterA_1_378': 1590.0, 'init_ShelterA_1_380': 1590.0, 'init_ShelterA_1_381': 1590.0, 'init_ShelterA_1_383': 1590.0, 'init_ShelterA_1_326': 1600.0, 'init_ShelterA_1_327': 1600.0, 'init_ShelterA_1_331': 1600.0, 'init_ShelterA_1_330': 1610.0, 'init_ShelterA_1_335': 1610.0, 'init_ShelterA_1_336': 1610.0, 'init_ShelterA_1_337': 1610.0, 'init_ShelterA_1_338': 1610.0, 'init_ShelterA_1_340': 1610.0, 'init_ShelterA_1_339': 1620.0, 'init_ShelterA_1_350': 1650.0, 'init_ShelterA_1_352': 1650.0, 'init_ShelterA_1_371': 1660.0, 'init_ShelterA_1_370': 1670.0, 'init_ShelterA_1_372': 1670.0, 'init_ShelterA_1_344': 1680.0, 'init_ShelterA_2_343': 1680.0, 'init_ShelterA_1_353': 1700.0, 'init_ShelterA_1_369': 1710.0, 'init_ShelterA_1_341': 1720.0, 'init_ShelterA_1_342': 1720.0, 'init_ShelterA_1_387': 1750.0, 'init_ShelterA_1_389': 1750.0, 'init_ShelterA_1_382': 1790.0, 'init_ShelterA_1_385': 1790.0, 'init_ShelterA_1_386': 1790.0, 'init_ShelterA_1_388': 1790.0, 'init_ShelterA_1_395': 1820.0, 'init_ShelterA_1_394': 1830.0, 'init_ShelterA_1_391': 1850.0, 'init_ShelterA_1_392': 1850.0, 'init_ShelterA_1_390': 1860.0, 'init_ShelterA_1_393': 1860.0, 'init_ShelterA_1_397': 1870.0, 'init_ShelterA_1_398': 1870.0, 'init_ShelterA_1_399': 1870.0, 'init_ShelterA_1_396': 1880.0}
pedestrian_count:0
route_changed_vehicle_count:326
route_change_event_count:326
rate_vehicle_abandonment:0.00%
wrong_way_driving_count:0
vehicle_abandonment_count:0
normalcy_bias_route_change_count:177
majority_bias_route_change_count:149
lane_changed_vehicle_count:0
info_obtained_lanechange_count:0
elapsed_time_lanechange_count:0
majority_bias_lanechange_count:0

=== Job Result ===
end=2026-07-13T03:19:32+0900
elapsed_seconds=354
exit_code=0
status=SUCCESS
