=== Job Info ===
job_name=va_s11_e1.0_v1.0_r10
host=schubert
pid=133232
scenario=11
early_rate=1.0
v2v_rate=1.0
run_id=10
config=/home/katagi/vehicle-assistant-system/scenarios/JIP/configs/config_scenario_11.toml
output_dir=/home/katagi/vehicle-assistant-system/schubert_logs/va_s11_e1.0_v1.0_r10
start=2026-07-13T03:03:02+0900
python_version=Python 3.12.3
sumo_version=Eclipse SUMO sumo Version v1_23_1+0435-630512a

=== Command ===
cd /home/katagi/vehicle-assistant-system/schubert_logs/va_s11_e1.0_v1.0_r10
PYTHONPATH=/home/katagi/vehicle-assistant-system:/home/katagi/tmp/sumo/tools:/home/katagi/local/sumo/tools:/home/katagi/tmp/sumo/tools:/home/katagi/local/sumo/tools:/home/katagi/tmp/sumo/tools:/home/katagi/local/sumo/tools: python3 -W ignore::UserWarning -m scenarios.JIP.1-1-4.simulation.runner_simulator --nogui /home/katagi/vehicle-assistant-system/scenarios/JIP/configs/config_scenario_11.toml 1.0 1.0
simulation_pid=133252
Step #0.00 (0ms ?*RT. ?UPS, TraCI: 336ms, vehicles TOT 1 ACT 1 BUF 0)                     Step #100.00 (0ms ?*RT. ?UPS, TraCI: 17ms, vehicles TOT 26 ACT 26 BUF 0)                  Step #200.00 (0ms ?*RT. ?UPS, TraCI: 36ms, vehicles TOT 51 ACT 51 BUF 0)                  Step #300.00 (0ms ?*RT. ?UPS, TraCI: 58ms, vehicles TOT 77 ACT 77 BUF 0)                  Step #400.00 (1ms ~= 1000.00*RT, ~104000.00UPS, TraCI: 687ms, vehicles TOT 106 ACT 104 BUFStep #500.00 (0ms ?*RT. ?UPS, TraCI: 1033ms, vehicles TOT 133 ACT 131 BUF 0)              Step #600.00 (0ms ?*RT. ?UPS, TraCI: 874ms, vehicles TOT 160 ACT 158 BUF 0)               Step #700.00 (1ms ~= 1000.00*RT, ~186000.00UPS, TraCI: 444ms, vehicles TOT 188 ACT 186 BUFStep #800.00 (1ms ~= 1000.00*RT, ~209000.00UPS, TraCI: 208ms, vehicles TOT 211 ACT 209 BUFStep #900.00 (1ms ~= 1000.00*RT, ~209000.00UPS, TraCI: 1060ms, vehicles TOT 239 ACT 209 BUStep #1000.00 (0ms ?*RT. ?UPS, TraCI: 1328ms, vehicles TOT 277 ACT 232 BUF 42)            Step #1100.00 (0ms ?*RT. ?UPS, TraCI: 422ms, vehicles TOT 311 ACT 255 BUF 49)             Step #1200.00 (0ms ?*RT. ?UPS, TraCI: 1083ms, vehicles TOT 350 ACT 279 BUF 57)            Step #1300.00 (1ms ~= 1000.00*RT, ~298000.00UPS, TraCI: 1178ms, vehicles TOT 373 ACT 298 BStep #1400.00 (0ms ?*RT. ?UPS, TraCI: 2138ms, vehicles TOT 414 ACT 323 BUF 77)            Step #1500.00 (1ms ~= 1000.00*RT, ~337000.00UPS, TraCI: 1628ms, vehicles TOT 453 ACT 337 BStep #1600.00 (1ms ~= 1000.00*RT, ~354000.00UPS, TraCI: 1384ms, vehicles TOT 484 ACT 354 BStep #1700.00 (1ms ~= 1000.00*RT, ~384000.00UPS, TraCI: 1353ms, vehicles TOT 522 ACT 384 BStep #1800.00 (1ms ~= 1000.00*RT, ~400000.00UPS, TraCI: 686ms, vehicles TOT 540 ACT 400 BUStep #1900.00 (0ms ?*RT. ?UPS, TraCI: 369ms, vehicles TOT 540 ACT 400 BUF 0)              Step #2000.00 (1ms ~= 1000.00*RT, ~400000.00UPS, TraCI: 284ms, vehicles TOT 540 ACT 400 BUStep #2100.00 (1ms ~= 1000.00*RT, ~400000.00UPS, TraCI: 132ms, vehicles TOT 540 ACT 400 BUStep #2200.00 (1ms ~= 1000.00*RT, ~400000.00UPS, TraCI: 124ms, vehicles TOT 540 ACT 400 BUStep #2300.00 (0ms ?*RT. ?UPS, TraCI: 110ms, vehicles TOT 540 ACT 400 BUF 0)              Step #2400.00 (0ms ?*RT. ?UPS, TraCI: 107ms, vehicles TOT 540 ACT 400 BUF 0)              Step #2500.00 (0ms ?*RT. ?UPS, TraCI: 99ms, vehicles TOT 540 ACT 400 BUF 0)               Step #2600.00 (0ms ?*RT. ?UPS, TraCI: 93ms, vehicles TOT 540 ACT 400 BUF 0)               Step #2700.00 (0ms ?*RT. ?UPS, TraCI: 79ms, vehicles TOT 540 ACT 400 BUF 0)               Step #2800.00 (0ms ?*RT. ?UPS, TraCI: 79ms, vehicles TOT 540 ACT 400 BUF 0)               Step #2900.00 (0ms ?*RT. ?UPS, TraCI: 78ms, vehicles TOT 540 ACT 400 BUF 0)               Step #3000.00 (0ms ?*RT. ?UPS, TraCI: 78ms, vehicles TOT 540 ACT 400 BUF 0)               
 Retrying in 1 seconds
出現数: {'A1': 365, 'A2': 35}
割合:
  Total: 400
  A1: 365 (91.25%)
  A2: 35 (8.75%)
  B1: 0 (0.00%)
  B2: 0 (0.00%)
mean elapsed_time: 619.7275
OK all vehs arrived 
平均渋滞継続時間: 525.09秒
OK all vehicle abandonment were detected
261
139
===== Simlation Result Summary =====
avg_congestion_duration: 525.09 
arrival_time_by_vehID_dict:{'init_ShelterA_1_0': 221.0, 'init_ShelterA_1_1': 229.0, 'init_ShelterA_1_3': 236.0, 'init_ShelterA_1_4': 241.0, 'init_ShelterA_1_5': 246.0, 'init_ShelterA_1_6': 296.0, 'init_ShelterA_1_8': 303.0, 'init_ShelterA_1_9': 308.0, 'init_ShelterA_1_10': 313.0, 'init_ShelterA_1_11': 319.0, 'init_ShelterA_1_12': 326.0, 'init_ShelterA_2_2': 329.0, 'init_ShelterA_1_14': 333.0, 'init_ShelterA_1_16': 341.0, 'init_ShelterA_1_17': 349.0, 'init_ShelterA_1_18': 358.0, 'init_ShelterA_1_19': 366.0, 'init_ShelterA_1_20': 372.0, 'init_ShelterA_1_21': 379.0, 'init_ShelterA_2_7': 386.0, 'init_ShelterA_1_22': 388.0, 'init_ShelterA_1_23': 397.0, 'init_ShelterA_1_24': 406.0, 'init_ShelterA_2_13': 406.0, 'init_ShelterA_1_25': 416.0, 'init_ShelterA_1_26': 425.0, 'init_ShelterA_1_27': 435.0, 'init_ShelterA_2_15': 435.0, 'init_ShelterA_1_28': 445.0, 'init_ShelterA_1_29': 454.0, 'init_ShelterA_1_30': 464.0, 'init_ShelterA_1_31': 474.0, 'init_ShelterA_1_32': 484.0, 'init_ShelterA_1_34': 493.0, 'init_ShelterA_2_35': 495.0, 'init_ShelterA_1_37': 505.0, 'newveh_ShelterA_2_36_1': 506.0, 'init_ShelterA_1_38': 515.0, 'init_ShelterA_1_39': 525.0, 'newveh_ShelterA_2_33_0': 533.0, 'init_ShelterA_1_40': 534.0, 'init_ShelterA_2_44': 537.0, 'init_ShelterA_2_52': 539.0, 'init_ShelterA_2_54': 541.0, 'init_ShelterA_2_60': 548.0, 'init_ShelterA_2_63': 550.0, 'init_ShelterA_2_73': 575.0, 'init_ShelterA_1_41': 578.0, 'init_ShelterA_1_42': 580.0, 'init_ShelterA_1_43': 583.0, 'init_ShelterA_1_45': 586.0, 'init_ShelterA_1_46': 589.0, 'init_ShelterA_1_47': 592.0, 'init_ShelterA_1_48': 595.0, 'init_ShelterA_1_49': 598.0, 'init_ShelterA_1_50': 601.0, 'init_ShelterA_1_51': 604.0, 'init_ShelterA_1_53': 607.0, 'init_ShelterA_1_55': 610.0, 'init_ShelterA_1_56': 613.0, 'init_ShelterA_1_57': 616.0, 'init_ShelterA_1_58': 641.0, 'init_ShelterA_1_59': 643.0, 'init_ShelterA_1_77': 647.0, 'init_ShelterA_1_61': 651.0, 'init_ShelterA_1_78': 652.0, 'init_ShelterA_1_62': 653.0, 'init_ShelterA_1_64': 656.0, 'init_ShelterA_1_65': 659.0, 'init_ShelterA_1_66': 662.0, 'init_ShelterA_1_67': 667.0, 'init_ShelterA_1_68': 670.0, 'init_ShelterA_1_69': 678.0, 'init_ShelterA_1_70': 685.0, 'init_ShelterA_1_71': 687.0, 'init_ShelterA_1_72': 690.0, 'init_ShelterA_1_74': 693.0, 'init_ShelterA_2_94': 720.0, 'init_ShelterA_2_98': 734.0, 'init_ShelterA_1_75': 736.0, 'init_ShelterA_1_76': 737.0, 'init_ShelterA_1_79': 763.0, 'init_ShelterA_2_107': 764.0, 'init_ShelterA_1_80': 766.0, 'init_ShelterA_1_81': 768.0, 'init_ShelterA_1_82': 771.0, 'init_ShelterA_1_83': 774.0, 'init_ShelterA_1_84': 776.0, 'init_ShelterA_1_85': 781.0, 'init_ShelterA_1_86': 783.0, 'init_ShelterA_1_87': 785.0, 'init_ShelterA_1_88': 788.0, 'init_ShelterA_1_89': 791.0, 'init_ShelterA_1_90': 794.0, 'init_ShelterA_1_91': 812.0, 'init_ShelterA_1_92': 821.0, 'init_ShelterA_1_93': 825.0, 'init_ShelterA_1_95': 828.0, 'init_ShelterA_1_96': 854.0, 'init_ShelterA_1_97': 856.0, 'init_ShelterA_1_99': 858.0, 'init_ShelterA_1_100': 861.0, 'init_ShelterA_1_101': 864.0, 'init_ShelterA_1_102': 867.0, 'init_ShelterA_1_103': 870.0, 'init_ShelterA_1_104': 873.0, 'init_ShelterA_1_105': 876.0, 'init_ShelterA_1_106': 879.0, 'init_ShelterA_1_108': 939.0, 'init_ShelterA_1_109': 940.0, 'init_ShelterA_1_110': 942.0, 'init_ShelterA_1_111': 945.0, 'init_ShelterA_1_112': 952.0, 'init_ShelterA_1_113': 954.0, 'init_ShelterA_1_114': 956.0, 'init_ShelterA_1_115': 960.0, 'init_ShelterA_1_116': 962.0, 'init_ShelterA_1_117': 964.0, 'init_ShelterA_1_118': 967.0, 'init_ShelterA_1_119': 970.0, 'init_ShelterA_1_120': 973.0, 'init_ShelterA_1_121': 976.0, 'init_ShelterA_1_122': 978.0, 'init_ShelterA_1_123': 986.0, 'init_ShelterA_2_141': 994.0, 'init_ShelterA_1_124': 995.0, 'init_ShelterA_2_145': 1003.0, 'init_ShelterA_1_125': 1019.0, 'init_ShelterA_1_126': 1021.0, 'init_ShelterA_1_127': 1026.0, 'init_ShelterA_1_128': 1028.0, 'init_ShelterA_1_129': 1030.0, 'init_ShelterA_1_130': 1032.0, 'init_ShelterA_1_131': 1035.0, 'init_ShelterA_1_132': 1056.0, 'init_ShelterA_1_133': 1058.0, 'init_ShelterA_1_134': 1060.0, 'init_ShelterA_1_135': 1062.0, 'init_ShelterA_1_136': 1065.0, 'init_ShelterA_1_137': 1068.0, 'init_ShelterA_1_138': 1071.0, 'init_ShelterA_1_139': 1083.0, 'init_ShelterA_1_140': 1096.0, 'init_ShelterA_1_163': 1103.0, 'init_ShelterA_1_142': 1105.0, 'init_ShelterA_2_166': 1106.0, 'init_ShelterA_1_143': 1107.0, 'init_ShelterA_1_144': 1109.0, 'init_ShelterA_1_146': 1111.0, 'init_ShelterA_1_147': 1122.0, 'init_ShelterA_1_148': 1129.0, 'init_ShelterA_1_149': 1131.0, 'init_ShelterA_1_150': 1133.0, 'init_ShelterA_1_151': 1135.0, 'init_ShelterA_1_152': 1138.0, 'init_ShelterA_1_153': 1140.0, 'init_ShelterA_1_154': 1146.0, 'init_ShelterA_1_155': 1148.0, 'init_ShelterA_1_156': 1170.0, 'init_ShelterA_1_157': 1203.0, 'init_ShelterA_1_158': 1205.0, 'init_ShelterA_1_159': 1207.0, 'init_ShelterA_1_160': 1209.0, 'init_ShelterA_1_161': 1211.0, 'init_ShelterA_1_162': 1214.0, 'init_ShelterA_1_216': 1220.0, 'init_ShelterA_1_164': 1228.0, 'init_ShelterA_1_165': 1230.0, 'init_ShelterA_1_167': 1232.0, 'init_ShelterA_1_168': 1234.0, 'init_ShelterA_1_169': 1236.0, 'init_ShelterA_1_170': 1238.0, 'init_ShelterA_1_171': 1241.0, 'init_ShelterA_1_172': 1250.0, 'init_ShelterA_1_173': 1282.0, 'init_ShelterA_1_174': 1284.0, 'init_ShelterA_1_175': 1286.0, 'init_ShelterA_1_176': 1288.0, 'init_ShelterA_1_177': 1290.0, 'init_ShelterA_1_178': 1293.0, 'init_ShelterA_1_179': 1295.0, 'init_ShelterA_1_180': 1312.0, 'init_ShelterA_1_181': 1314.0, 'init_ShelterA_1_182': 1316.0, 'init_ShelterA_1_183': 1318.0, 'init_ShelterA_1_184': 1320.0, 'init_ShelterA_1_212': 1323.0, 'init_ShelterA_1_213': 1325.0, 'init_ShelterA_1_215': 1329.0, 'init_ShelterA_1_217': 1331.0, 'newveh_ShelterA_1_185_25': 1375.0, 'newveh_ShelterA_2_186_2': 1378.0, 'newveh_ShelterA_1_214_29': 1382.0, 'newveh_ShelterA_2_187_3': 1386.0, 'newveh_ShelterA_1_203_28': 1389.0, 'newveh_ShelterA_2_188_4': 1392.0, 'newveh_ShelterA_1_195_27': 1393.0, 'newveh_ShelterA_2_189_5': 1397.0, 'newveh_ShelterA_1_191_26': 1398.0, 'newveh_ShelterA_2_192_7': 1403.0, 'newveh_ShelterA_2_190_6': 1410.0, 'newveh_ShelterA_2_193_8': 1417.0, 'newveh_ShelterA_2_196_10': 1424.0, 'newveh_ShelterA_2_194_9': 1432.0, 'newveh_ShelterA_2_198_12': 1441.0, 'newveh_ShelterA_2_197_11': 1450.0, 'newveh_ShelterA_1_218_30': 1455.0, 'newveh_ShelterA_2_199_13': 1459.0, 'newveh_ShelterA_2_200_14': 1468.0, 'newveh_ShelterA_2_201_15': 1478.0, 'newveh_ShelterA_2_202_16': 1488.0, 'init_ShelterA_1_257': 1497.0, 'newveh_ShelterA_2_204_17': 1498.0, 'newveh_ShelterA_1_233_35': 1501.0, 'newveh_ShelterA_2_205_18': 1507.0, 'newveh_ShelterA_2_235_69': 1517.0, 'newveh_ShelterA_2_232_68': 1527.0, 'newveh_ShelterA_2_206_19': 1536.0, 'newveh_ShelterA_2_207_20': 1546.0, 'newveh_ShelterA_2_208_21': 1556.0, 'init_ShelterA_1_269': 1561.0, 'newveh_ShelterA_2_209_22': 1565.0, 'newveh_ShelterA_2_211_24': 1575.0, 'init_ShelterA_1_273': 1578.0, 'newveh_ShelterA_2_210_23': 1595.0, 'init_ShelterA_1_219': 1597.0, 'init_ShelterA_1_221': 1599.0, 'init_ShelterA_1_226': 1602.0, 'init_ShelterA_1_236': 1604.0, 'init_ShelterA_1_237': 1606.0, 'init_ShelterA_1_239': 1608.0, 'newveh_ShelterA_2_231_67': 1617.0, 'newveh_ShelterA_2_220_66': 1636.0, 'init_ShelterA_1_243': 1639.0, 'init_ShelterA_1_244': 1641.0, 'newveh_ShelterA_1_260_46': 1641.0, 'init_ShelterA_1_245': 1643.0, 'init_ShelterA_1_246': 1645.0, 'init_ShelterA_1_247': 1647.0, 'init_ShelterA_1_248': 1649.0, 'init_ShelterA_1_287': 1649.0, 'init_ShelterA_1_249': 1651.0, 'init_ShelterA_1_288': 1653.0, 'init_ShelterA_1_250': 1654.0, 'init_ShelterA_1_251': 1657.0, 'newveh_ShelterA_1_254_45': 1658.0, 'init_ShelterA_1_252': 1659.0, 'init_ShelterA_1_256': 1662.0, 'newveh_ShelterA_2_230_32': 1671.0, 'init_ShelterA_1_258': 1674.0, 'newveh_ShelterA_2_285_85': 1682.0, 'newveh_ShelterA_2_222_31': 1690.0, 'newveh_ShelterA_2_224_34': 1698.0, 'newveh_ShelterA_2_223_33': 1708.0, 'newveh_ShelterA_2_238_36': 1717.0, 'init_ShelterA_1_267': 1719.0, 'newveh_ShelterA_2_225_37': 1729.0, 'init_ShelterA_1_268': 1732.0, 'newveh_ShelterA_2_227_38': 1741.0, 'newveh_ShelterA_1_275_56': 1749.0, 'newveh_ShelterA_2_228_39': 1751.0, 'newveh_ShelterA_1_280_60': 1757.0, 'newveh_ShelterA_2_242_44': 1761.0, 'newveh_ShelterA_1_284_65': 1762.0, 'newveh_ShelterA_2_241_43': 1770.0, 'newveh_ShelterA_2_240_42': 1780.0, 'newveh_ShelterA_2_229_40': 1790.0, 'newveh_ShelterA_2_234_41': 1800.0, 'init_ShelterA_1_274': 1802.0, 'newveh_ShelterA_2_270_84': 1812.0, 'newveh_ShelterA_2_271_86': 1822.0, 'init_ShelterA_1_320': 1832.0, 'newveh_ShelterA_2_300_99': 1836.0, 'init_ShelterA_1_277': 1838.0, 'init_ShelterA_1_286': 1840.0, 'init_ShelterA_1_289': 1842.0, 'newveh_ShelterA_1_290_70': 1844.0, 'newveh_ShelterA_2_264_51': 1851.0, 'newveh_ShelterA_2_263_50': 1859.0, 'newveh_ShelterA_2_262_49': 1868.0, 'newveh_ShelterA_2_261_48': 1878.0, 'newveh_ShelterA_2_259_47': 1887.0, 'newveh_ShelterA_2_253_52': 1897.0, 'newveh_ShelterA_2_266_55': 1907.0, 'newveh_ShelterA_2_265_54': 1916.0, 'newveh_ShelterA_2_255_53': 1926.0, 'init_ShelterA_1_295': 1928.0, 'init_ShelterA_1_372': 1930.0, 'newveh_ShelterA_2_299_98': 1938.0, 'newveh_ShelterA_2_298_97': 1960.0, 'init_ShelterA_1_296': 1963.0, 'init_ShelterA_1_297': 1965.0, 'init_ShelterA_1_301': 1967.0, 'init_ShelterA_1_302': 1969.0, 'init_ShelterA_1_303': 1971.0, 'init_ShelterA_1_304': 1973.0, 'init_ShelterA_1_305': 1975.0, 'init_ShelterA_1_306': 1977.0, 'init_ShelterA_1_308': 1980.0, 'init_ShelterA_1_311': 1983.0, 'init_ShelterA_1_312': 1986.0, 'newveh_ShelterA_2_278_58': 1995.0, 'newveh_ShelterA_2_276_57': 2001.0, 'newveh_ShelterA_1_325_87': 2006.0, 'newveh_ShelterA_2_279_59': 2010.0, 'newveh_ShelterA_2_309_116': 2019.0, 'init_ShelterA_1_396': 2024.0, 'newveh_ShelterA_2_283_64': 2028.0, 'newveh_ShelterA_2_282_63': 2037.0, 'newveh_ShelterA_2_281_62': 2047.0, 'init_ShelterA_1_321': 2050.0, 'newveh_ShelterA_2_272_61': 2072.0, 'init_ShelterA_1_322': 2074.0, 'init_ShelterA_1_323': 2077.0, 'init_ShelterA_1_324': 2079.0, 'init_ShelterA_1_327': 2081.0, 'init_ShelterA_1_328': 2083.0, 'init_ShelterA_1_330': 2085.0, 'init_ShelterA_1_336': 2087.0, 'init_ShelterA_1_399': 2088.0, 'newveh_ShelterA_2_291_71': 2096.0, 'newveh_ShelterA_2_292_72': 2101.0, 'newveh_ShelterA_1_356_103': 2108.0, 'newveh_ShelterA_2_338_133': 2109.0, 'newveh_ShelterA_1_349_100': 2114.0, 'newveh_ShelterA_2_337_132': 2118.0, 'newveh_ShelterA_2_334_131': 2127.0, 'newveh_ShelterA_2_371_137': 2137.0, 'newveh_ShelterA_2_364_136': 2146.0, 'newveh_ShelterA_2_294_74': 2156.0, 'newveh_ShelterA_2_361_135': 2165.0, 'newveh_ShelterA_2_359_134': 2175.0, 'newveh_ShelterA_2_293_73': 2197.0, 'init_ShelterA_1_342': 2199.0, 'init_ShelterA_1_343': 2201.0, 'init_ShelterA_1_344': 2203.0, 'init_ShelterA_1_345': 2205.0, 'init_ShelterA_1_346': 2207.0, 'newveh_ShelterA_1_380_118': 2208.0, 'init_ShelterA_1_350': 2209.0, 'init_ShelterA_1_355': 2211.0, 'init_ShelterA_1_358': 2213.0, 'init_ShelterA_1_360': 2216.0, 'init_ShelterA_1_367': 2218.0, 'newveh_ShelterA_2_307_75': 2228.0, 'newveh_ShelterA_2_318_82': 2233.0, 'newveh_ShelterA_2_317_81': 2242.0, 'newveh_ShelterA_2_395_139': 2250.0, 'newveh_ShelterA_2_390_138': 2260.0, 'newveh_ShelterA_1_392_130': 2267.0, 'newveh_ShelterA_2_316_80': 2269.0, 'init_ShelterA_1_373': 2272.0, 'newveh_ShelterA_2_315_79': 2281.0, 'newveh_ShelterA_2_314_78': 2291.0, 'newveh_ShelterA_2_313_77': 2300.0, 'newveh_ShelterA_2_310_76': 2310.0, 'newveh_ShelterA_2_319_83': 2332.0, 'init_ShelterA_1_387': 2334.0, 'init_ShelterA_1_388': 2337.0, 'init_ShelterA_1_389': 2339.0, 'init_ShelterA_1_391': 2341.0, 'init_ShelterA_1_393': 2344.0, 'init_ShelterA_1_394': 2346.0, 'newveh_ShelterA_2_326_88': 2355.0, 'init_ShelterA_1_397': 2358.0, 'init_ShelterA_1_398': 2360.0, 'newveh_ShelterA_2_331_90': 2367.0, 'newveh_ShelterA_2_329_89': 2375.0, 'newveh_ShelterA_2_332_91': 2383.0, 'newveh_ShelterA_2_333_92': 2392.0, 'newveh_ShelterA_2_341_96': 2402.0, 'newveh_ShelterA_2_357_102': 2411.0, 'newveh_ShelterA_2_340_95': 2421.0, 'newveh_ShelterA_2_339_94': 2431.0, 'newveh_ShelterA_2_335_93': 2440.0, 'newveh_ShelterA_2_348_101': 2450.0, 'newveh_ShelterA_2_352_104': 2460.0, 'newveh_ShelterA_2_354_105': 2470.0, 'newveh_ShelterA_2_347_107': 2479.0, 'newveh_ShelterA_2_362_106': 2489.0, 'newveh_ShelterA_2_365_111': 2499.0, 'newveh_ShelterA_2_366_112': 2508.0, 'newveh_ShelterA_2_363_110': 2518.0, 'newveh_ShelterA_2_369_114': 2528.0, 'newveh_ShelterA_2_368_113': 2537.0, 'newveh_ShelterA_2_353_109': 2547.0, 'newveh_ShelterA_2_351_108': 2557.0, 'newveh_ShelterA_2_370_115': 2566.0, 'newveh_ShelterA_2_386_124': 2576.0, 'newveh_ShelterA_2_385_123': 2586.0, 'newveh_ShelterA_2_384_122': 2595.0, 'newveh_ShelterA_2_383_121': 2605.0, 'newveh_ShelterA_2_382_120': 2615.0, 'newveh_ShelterA_2_375_117': 2624.0, 'newveh_ShelterA_2_376_119': 2634.0, 'newveh_ShelterA_2_374_125': 2644.0, 'newveh_ShelterA_2_377_126': 2653.0, 'newveh_ShelterA_2_378_127': 2659.0, 'newveh_ShelterA_2_379_128': 2663.0, 'newveh_ShelterA_2_381_129': 2668.0}
vehicle_abandant_time_by_pedestrianID_dict:{}
walking_distance_by_pedestrianID_dict:{}
route_change_time_by_vehID_dict:{'init_ShelterA_2_35': 340.0, 'init_ShelterA_2_52': 340.0, 'init_ShelterA_1_33': 350.0, 'init_ShelterA_1_36': 350.0, 'init_ShelterA_1_41': 360.0, 'init_ShelterA_1_43': 360.0, 'init_ShelterA_1_45': 360.0, 'init_ShelterA_2_44': 360.0, 'init_ShelterA_1_42': 370.0, 'init_ShelterA_1_46': 370.0, 'init_ShelterA_1_49': 370.0, 'init_ShelterA_1_51': 370.0, 'init_ShelterA_1_53': 370.0, 'init_ShelterA_1_47': 380.0, 'init_ShelterA_1_48': 380.0, 'init_ShelterA_1_50': 380.0, 'init_ShelterA_2_54': 400.0, 'init_ShelterA_1_55': 410.0, 'init_ShelterA_1_56': 420.0, 'init_ShelterA_1_57': 420.0, 'init_ShelterA_1_58': 420.0, 'init_ShelterA_1_59': 420.0, 'init_ShelterA_1_61': 420.0, 'init_ShelterA_1_62': 420.0, 'init_ShelterA_2_60': 420.0, 'init_ShelterA_1_66': 430.0, 'init_ShelterA_1_67': 430.0, 'init_ShelterA_2_63': 430.0, 'init_ShelterA_1_64': 440.0, 'init_ShelterA_1_65': 440.0, 'init_ShelterA_1_68': 440.0, 'init_ShelterA_1_70': 440.0, 'init_ShelterA_1_69': 460.0, 'init_ShelterA_1_71': 460.0, 'init_ShelterA_1_72': 490.0, 'init_ShelterA_1_74': 500.0, 'init_ShelterA_1_75': 500.0, 'init_ShelterA_1_76': 500.0, 'init_ShelterA_2_73': 500.0, 'init_ShelterA_1_79': 510.0, 'init_ShelterA_1_81': 510.0, 'init_ShelterA_1_82': 550.0, 'init_ShelterA_1_84': 550.0, 'init_ShelterA_1_86': 550.0, 'init_ShelterA_1_88': 550.0, 'init_ShelterA_1_89': 550.0, 'init_ShelterA_1_80': 560.0, 'init_ShelterA_1_83': 560.0, 'init_ShelterA_1_85': 560.0, 'init_ShelterA_1_87': 560.0, 'init_ShelterA_1_90': 570.0, 'init_ShelterA_2_94': 570.0, 'init_ShelterA_1_91': 590.0, 'init_ShelterA_1_92': 590.0, 'init_ShelterA_1_93': 590.0, 'init_ShelterA_1_95': 590.0, 'init_ShelterA_1_101': 600.0, 'init_ShelterA_1_103': 600.0, 'init_ShelterA_1_96': 600.0, 'init_ShelterA_1_97': 600.0, 'init_ShelterA_1_99': 600.0, 'init_ShelterA_2_98': 600.0, 'init_ShelterA_1_100': 610.0, 'init_ShelterA_1_102': 610.0, 'init_ShelterA_1_104': 610.0, 'init_ShelterA_1_105': 610.0, 'init_ShelterA_1_106': 610.0, 'init_ShelterA_2_107': 670.0, 'init_ShelterA_1_108': 680.0, 'init_ShelterA_1_109': 680.0, 'init_ShelterA_1_111': 680.0, 'init_ShelterA_1_113': 680.0, 'init_ShelterA_1_110': 690.0, 'init_ShelterA_1_115': 690.0, 'init_ShelterA_1_116': 690.0, 'init_ShelterA_1_117': 690.0, 'init_ShelterA_1_118': 690.0, 'init_ShelterA_1_120': 690.0, 'init_ShelterA_1_121': 690.0, 'init_ShelterA_1_122': 690.0, 'init_ShelterA_1_112': 700.0, 'init_ShelterA_1_114': 700.0, 'init_ShelterA_1_123': 700.0, 'init_ShelterA_1_124': 700.0, 'init_ShelterA_1_119': 710.0, 'init_ShelterA_1_125': 750.0, 'init_ShelterA_1_126': 750.0, 'init_ShelterA_1_127': 760.0, 'init_ShelterA_1_128': 760.0, 'init_ShelterA_1_129': 760.0, 'init_ShelterA_1_131': 760.0, 'init_ShelterA_1_132': 770.0, 'init_ShelterA_1_133': 770.0, 'init_ShelterA_1_134': 770.0, 'init_ShelterA_1_135': 770.0, 'init_ShelterA_1_137': 770.0, 'init_ShelterA_1_139': 770.0, 'init_ShelterA_2_141': 770.0, 'init_ShelterA_1_130': 780.0, 'init_ShelterA_1_136': 780.0, 'init_ShelterA_1_140': 780.0, 'init_ShelterA_1_186': 810.0, 'init_ShelterA_1_187': 810.0, 'init_ShelterA_1_188': 810.0, 'init_ShelterA_1_189': 810.0, 'init_ShelterA_1_190': 810.0, 'init_ShelterA_1_192': 810.0, 'init_ShelterA_1_193': 810.0, 'init_ShelterA_1_194': 810.0, 'init_ShelterA_1_196': 810.0, 'init_ShelterA_1_197': 810.0, 'init_ShelterA_1_198': 810.0, 'init_ShelterA_1_199': 810.0, 'init_ShelterA_1_200': 810.0, 'init_ShelterA_1_201': 810.0, 'init_ShelterA_1_202': 810.0, 'init_ShelterA_1_204': 810.0, 'init_ShelterA_1_205': 810.0, 'init_ShelterA_1_206': 810.0, 'init_ShelterA_1_207': 810.0, 'init_ShelterA_1_208': 810.0, 'init_ShelterA_1_209': 810.0, 'init_ShelterA_1_210': 810.0, 'init_ShelterA_1_211': 810.0, 'init_ShelterA_2_185': 810.0, 'init_ShelterA_2_191': 810.0, 'init_ShelterA_2_195': 810.0, 'init_ShelterA_2_203': 810.0, 'init_ShelterA_1_138': 820.0, 'init_ShelterA_2_214': 820.0, 'init_ShelterA_1_143': 830.0, 'init_ShelterA_2_145': 830.0, 'init_ShelterA_1_144': 840.0, 'init_ShelterA_1_146': 840.0, 'init_ShelterA_1_147': 840.0, 'init_ShelterA_1_142': 850.0, 'init_ShelterA_1_148': 850.0, 'init_ShelterA_1_149': 850.0, 'init_ShelterA_1_150': 850.0, 'init_ShelterA_1_151': 850.0, 'init_ShelterA_1_152': 850.0, 'init_ShelterA_1_153': 850.0, 'init_ShelterA_1_154': 850.0, 'init_ShelterA_1_155': 850.0, 'init_ShelterA_1_156': 860.0, 'init_ShelterA_1_158': 860.0, 'init_ShelterA_1_159': 860.0, 'init_ShelterA_1_160': 860.0, 'init_ShelterA_1_157': 870.0, 'init_ShelterA_1_162': 920.0, 'init_ShelterA_2_218': 920.0, 'init_ShelterA_2_166': 930.0, 'init_ShelterA_1_164': 940.0, 'init_ShelterA_1_167': 940.0, 'init_ShelterA_1_168': 940.0, 'init_ShelterA_1_170': 940.0, 'init_ShelterA_1_172': 940.0, 'init_ShelterA_1_175': 940.0, 'init_ShelterA_1_161': 950.0, 'init_ShelterA_1_165': 950.0, 'init_ShelterA_1_169': 950.0, 'init_ShelterA_1_173': 950.0, 'init_ShelterA_1_174': 950.0, 'init_ShelterA_1_176': 950.0, 'init_ShelterA_1_177': 950.0, 'init_ShelterA_1_171': 960.0, 'init_ShelterA_1_222': 960.0, 'init_ShelterA_1_230': 960.0, 'init_ShelterA_1_223': 970.0, 'init_ShelterA_1_224': 970.0, 'init_ShelterA_2_233': 970.0, 'init_ShelterA_1_238': 980.0, 'init_ShelterA_1_178': 990.0, 'init_ShelterA_1_225': 990.0, 'init_ShelterA_1_227': 990.0, 'init_ShelterA_1_228': 990.0, 'init_ShelterA_1_229': 990.0, 'init_ShelterA_1_234': 990.0, 'init_ShelterA_1_240': 990.0, 'init_ShelterA_1_241': 990.0, 'init_ShelterA_1_242': 990.0, 'init_ShelterA_1_181': 1010.0, 'init_ShelterA_1_179': 1020.0, 'init_ShelterA_1_180': 1020.0, 'init_ShelterA_1_182': 1020.0, 'init_ShelterA_1_183': 1020.0, 'init_ShelterA_1_184': 1020.0, 'init_ShelterA_1_212': 1020.0, 'init_ShelterA_1_215': 1030.0, 'init_ShelterA_1_217': 1030.0, 'init_ShelterA_1_213': 1040.0, 'init_ShelterA_2_254': 1050.0, 'init_ShelterA_2_260': 1050.0, 'init_ShelterA_1_259': 1060.0, 'init_ShelterA_1_261': 1060.0, 'init_ShelterA_1_262': 1060.0, 'init_ShelterA_1_263': 1060.0, 'init_ShelterA_1_264': 1060.0, 'init_ShelterA_1_253': 1070.0, 'init_ShelterA_1_255': 1070.0, 'init_ShelterA_1_265': 1070.0, 'init_ShelterA_1_266': 1070.0, 'init_ShelterA_2_275': 1140.0, 'init_ShelterA_1_276': 1150.0, 'init_ShelterA_1_278': 1150.0, 'init_ShelterA_1_279': 1150.0, 'init_ShelterA_2_280': 1150.0, 'init_ShelterA_1_272': 1160.0, 'init_ShelterA_1_281': 1160.0, 'init_ShelterA_1_282': 1160.0, 'init_ShelterA_1_283': 1160.0, 'init_ShelterA_2_284': 1160.0, 'init_ShelterA_1_220': 1170.0, 'init_ShelterA_1_231': 1170.0, 'init_ShelterA_1_232': 1170.0, 'init_ShelterA_1_235': 1170.0, 'init_ShelterA_1_239': 1180.0, 'init_ShelterA_1_244': 1180.0, 'init_ShelterA_1_245': 1190.0, 'init_ShelterA_2_290': 1200.0, 'init_ShelterA_1_219': 1210.0, 'init_ShelterA_1_221': 1210.0, 'init_ShelterA_1_248': 1210.0, 'init_ShelterA_1_249': 1210.0, 'init_ShelterA_1_256': 1210.0, 'init_ShelterA_1_226': 1220.0, 'init_ShelterA_1_236': 1220.0, 'init_ShelterA_1_237': 1220.0, 'init_ShelterA_1_243': 1220.0, 'init_ShelterA_1_247': 1220.0, 'init_ShelterA_1_251': 1220.0, 'init_ShelterA_1_291': 1220.0, 'init_ShelterA_1_292': 1220.0, 'init_ShelterA_1_293': 1220.0, 'init_ShelterA_1_294': 1220.0, 'init_ShelterA_1_250': 1230.0, 'init_ShelterA_1_246': 1250.0, 'init_ShelterA_1_252': 1290.0, 'init_ShelterA_1_267': 1310.0, 'init_ShelterA_1_258': 1320.0, 'init_ShelterA_1_307': 1320.0, 'init_ShelterA_1_310': 1320.0, 'init_ShelterA_1_313': 1320.0, 'init_ShelterA_1_314': 1320.0, 'init_ShelterA_1_315': 1320.0, 'init_ShelterA_1_316': 1320.0, 'init_ShelterA_1_317': 1320.0, 'init_ShelterA_1_318': 1320.0, 'init_ShelterA_1_319': 1330.0, 'init_ShelterA_1_268': 1350.0, 'init_ShelterA_1_270': 1350.0, 'init_ShelterA_1_285': 1350.0, 'init_ShelterA_1_271': 1360.0, 'init_ShelterA_2_325': 1360.0, 'init_ShelterA_1_286': 1370.0, 'init_ShelterA_1_296': 1390.0, 'init_ShelterA_1_326': 1390.0, 'init_ShelterA_1_295': 1400.0, 'init_ShelterA_1_297': 1400.0, 'init_ShelterA_1_329': 1400.0, 'init_ShelterA_1_331': 1400.0, 'init_ShelterA_1_332': 1410.0, 'init_ShelterA_1_333': 1410.0, 'init_ShelterA_1_335': 1410.0, 'init_ShelterA_1_339': 1410.0, 'init_ShelterA_1_340': 1410.0, 'init_ShelterA_1_341': 1410.0, 'init_ShelterA_1_289': 1420.0, 'init_ShelterA_1_277': 1430.0, 'init_ShelterA_1_274': 1440.0, 'init_ShelterA_1_298': 1440.0, 'init_ShelterA_1_299': 1440.0, 'init_ShelterA_1_300': 1440.0, 'init_ShelterA_2_349': 1460.0, 'init_ShelterA_1_303': 1470.0, 'init_ShelterA_1_304': 1470.0, 'init_ShelterA_1_348': 1470.0, 'init_ShelterA_1_357': 1470.0, 'init_ShelterA_2_356': 1470.0, 'init_ShelterA_1_301': 1480.0, 'init_ShelterA_1_302': 1480.0, 'init_ShelterA_1_352': 1480.0, 'init_ShelterA_1_354': 1480.0, 'init_ShelterA_1_362': 1480.0, 'init_ShelterA_1_347': 1490.0, 'init_ShelterA_1_351': 1490.0, 'init_ShelterA_1_353': 1490.0, 'init_ShelterA_1_363': 1490.0, 'init_ShelterA_1_365': 1490.0, 'init_ShelterA_1_366': 1490.0, 'init_ShelterA_1_368': 1500.0, 'init_ShelterA_1_369': 1500.0, 'init_ShelterA_1_370': 1500.0, 'init_ShelterA_1_305': 1520.0, 'init_ShelterA_1_306': 1520.0, 'init_ShelterA_1_308': 1520.0, 'init_ShelterA_1_311': 1520.0, 'init_ShelterA_1_312': 1520.0, 'init_ShelterA_1_309': 1530.0, 'init_ShelterA_1_375': 1550.0, 'init_ShelterA_2_380': 1550.0, 'init_ShelterA_1_376': 1560.0, 'init_ShelterA_1_382': 1560.0, 'init_ShelterA_1_383': 1560.0, 'init_ShelterA_1_384': 1560.0, 'init_ShelterA_1_385': 1560.0, 'init_ShelterA_1_386': 1560.0, 'init_ShelterA_1_330': 1570.0, 'init_ShelterA_1_374': 1570.0, 'init_ShelterA_1_377': 1570.0, 'init_ShelterA_1_378': 1570.0, 'init_ShelterA_1_379': 1570.0, 'init_ShelterA_1_381': 1570.0, 'init_ShelterA_1_328': 1580.0, 'init_ShelterA_1_322': 1610.0, 'init_ShelterA_1_323': 1610.0, 'init_ShelterA_2_392': 1610.0, 'init_ShelterA_1_334': 1620.0, 'init_ShelterA_1_337': 1620.0, 'init_ShelterA_1_338': 1620.0, 'init_ShelterA_1_345': 1650.0, 'init_ShelterA_1_346': 1650.0, 'init_ShelterA_1_336': 1660.0, 'init_ShelterA_1_367': 1660.0, 'init_ShelterA_1_324': 1670.0, 'init_ShelterA_1_327': 1670.0, 'init_ShelterA_1_342': 1680.0, 'init_ShelterA_1_358': 1690.0, 'init_ShelterA_1_360': 1690.0, 'init_ShelterA_1_343': 1700.0, 'init_ShelterA_1_344': 1700.0, 'init_ShelterA_1_350': 1700.0, 'init_ShelterA_1_355': 1700.0, 'init_ShelterA_1_359': 1700.0, 'init_ShelterA_1_361': 1700.0, 'init_ShelterA_1_364': 1700.0, 'init_ShelterA_1_371': 1700.0, 'init_ShelterA_1_321': 1720.0, 'init_ShelterA_1_373': 1730.0, 'init_ShelterA_1_387': 1740.0, 'init_ShelterA_1_393': 1740.0, 'init_ShelterA_1_394': 1740.0, 'init_ShelterA_1_391': 1750.0, 'init_ShelterA_1_388': 1790.0, 'init_ShelterA_1_390': 1790.0, 'init_ShelterA_1_395': 1790.0, 'init_ShelterA_1_397': 1850.0, 'init_ShelterA_1_398': 1850.0, 'init_ShelterA_1_389': 1860.0}
pedestrian_count:0
route_changed_vehicle_count:349
route_change_event_count:349
rate_vehicle_abandonment:0.00%
wrong_way_driving_count:0
vehicle_abandonment_count:0
normalcy_bias_route_change_count:209
majority_bias_route_change_count:140
lane_changed_vehicle_count:0
info_obtained_lanechange_count:0
elapsed_time_lanechange_count:0
majority_bias_lanechange_count:0

=== Job Result ===
end=2026-07-13T03:08:40+0900
elapsed_seconds=338
exit_code=0
status=SUCCESS
