=== Job Info ===
job_name=va_s4_e1.0_v1.0_r49
host=schubert
pid=114968
scenario=4
early_rate=1.0
v2v_rate=1.0
run_id=49
config=/home/katagi/vehicle-assistant-system/scenarios/JIP/configs/config_scenario_4.toml
output_dir=/home/katagi/vehicle-assistant-system/schubert_logs/va_s4_e1.0_v1.0_r49
start=2026-07-13T01:25:25+0900
python_version=Python 3.12.3
sumo_version=Eclipse SUMO sumo Version v1_23_1+0435-630512a

=== Command ===
cd /home/katagi/vehicle-assistant-system/schubert_logs/va_s4_e1.0_v1.0_r49
PYTHONPATH=/home/katagi/vehicle-assistant-system:/home/katagi/tmp/sumo/tools:/home/katagi/local/sumo/tools:/home/katagi/tmp/sumo/tools:/home/katagi/local/sumo/tools:/home/katagi/tmp/sumo/tools:/home/katagi/local/sumo/tools: python3 -W ignore::UserWarning -m scenarios.JIP.1-1-4.simulation.runner_simulator --nogui /home/katagi/vehicle-assistant-system/scenarios/JIP/configs/config_scenario_4.toml 1.0 1.0
simulation_pid=114988
Step #0.00 (0ms ?*RT. ?UPS, TraCI: 337ms, vehicles TOT 1 ACT 1 BUF 0)                     Step #100.00 (0ms ?*RT. ?UPS, TraCI: 18ms, vehicles TOT 26 ACT 26 BUF 0)                  Step #200.00 (0ms ?*RT. ?UPS, TraCI: 38ms, vehicles TOT 51 ACT 51 BUF 0)                  Step #300.00 (0ms ?*RT. ?UPS, TraCI: 56ms, vehicles TOT 77 ACT 77 BUF 0)                  Step #400.00 (1ms ~= 1000.00*RT, ~104000.00UPS, TraCI: 1618ms, vehicles TOT 104 ACT 104 BUStep #500.00 (1ms ~= 1000.00*RT, ~131000.00UPS, TraCI: 1431ms, vehicles TOT 131 ACT 131 BUStep #600.00 (0ms ?*RT. ?UPS, TraCI: 1256ms, vehicles TOT 158 ACT 158 BUF 0)              Step #700.00 (1ms ~= 1000.00*RT, ~179000.00UPS, TraCI: 2141ms, vehicles TOT 191 ACT 179 BUStep #800.00 (0ms ?*RT. ?UPS, TraCI: 1706ms, vehicles TOT 208 ACT 187 BUF 28)             Step #900.00 (0ms ?*RT. ?UPS, TraCI: 2195ms, vehicles TOT 242 ACT 217 BUF 27)             Step #1000.00 (1ms ~= 1000.00*RT, ~229000.00UPS, TraCI: 1820ms, vehicles TOT 267 ACT 229 BStep #1100.00 (1ms ~= 1000.00*RT, ~258000.00UPS, TraCI: 1995ms, vehicles TOT 301 ACT 258 BStep #1200.00 (1ms ~= 1000.00*RT, ~281000.00UPS, TraCI: 2224ms, vehicles TOT 336 ACT 281 BStep #1300.00 (1ms ~= 1000.00*RT, ~302000.00UPS, TraCI: 2172ms, vehicles TOT 362 ACT 302 BStep #1400.00 (1ms ~= 1000.00*RT, ~323000.00UPS, TraCI: 2704ms, vehicles TOT 396 ACT 323 BStep #1500.00 (1ms ~= 1000.00*RT, ~344000.00UPS, TraCI: 2808ms, vehicles TOT 434 ACT 344 BStep #1600.00 (1ms ~= 1000.00*RT, ~360000.00UPS, TraCI: 2093ms, vehicles TOT 461 ACT 360 BStep #1700.00 (1ms ~= 1000.00*RT, ~384000.00UPS, TraCI: 1980ms, vehicles TOT 491 ACT 384 BStep #1800.00 (1ms ~= 1000.00*RT, ~400000.00UPS, TraCI: 1953ms, vehicles TOT 507 ACT 400 BStep #1900.00 (1ms ~= 1000.00*RT, ~400000.00UPS, TraCI: 1814ms, vehicles TOT 507 ACT 400 BStep #2000.00 (0ms ?*RT. ?UPS, TraCI: 1013ms, vehicles TOT 507 ACT 400 BUF 0)             Step #2100.00 (0ms ?*RT. ?UPS, TraCI: 497ms, vehicles TOT 507 ACT 400 BUF 0)              Step #2200.00 (1ms ~= 1000.00*RT, ~400000.00UPS, TraCI: 95ms, vehicles TOT 507 ACT 400 BUFStep #2300.00 (0ms ?*RT. ?UPS, TraCI: 96ms, vehicles TOT 507 ACT 400 BUF 0)               Step #2400.00 (0ms ?*RT. ?UPS, TraCI: 87ms, vehicles TOT 507 ACT 400 BUF 0)               Step #2500.00 (0ms ?*RT. ?UPS, TraCI: 76ms, vehicles TOT 507 ACT 400 BUF 0)               Step #2600.00 (1ms ~= 1000.00*RT, ~400000.00UPS, TraCI: 76ms, vehicles TOT 507 ACT 400 BUFStep #2700.00 (0ms ?*RT. ?UPS, TraCI: 78ms, vehicles TOT 507 ACT 400 BUF 0)               Step #2800.00 (0ms ?*RT. ?UPS, TraCI: 78ms, vehicles TOT 507 ACT 400 BUF 0)               Step #2900.00 (0ms ?*RT. ?UPS, TraCI: 77ms, vehicles TOT 507 ACT 400 BUF 0)               Step #3000.00 (0ms ?*RT. ?UPS, TraCI: 77ms, vehicles TOT 507 ACT 400 BUF 0)               
 Retrying in 1 seconds
出現数: {'A2': 38, 'A1': 362}
割合:
  Total: 400
  A1: 362 (90.50%)
  A2: 38 (9.50%)
  B1: 0 (0.00%)
  B2: 0 (0.00%)
mean elapsed_time: 522.0625
OK all vehs arrived 
平均渋滞継続時間: 456.75秒
OK all vehicle abandonment were detected
279
121
===== Simlation Result Summary =====
avg_congestion_duration: 456.75 
arrival_time_by_vehID_dict:{'init_ShelterA_1_1': 219.0, 'init_ShelterA_1_2': 225.0, 'init_ShelterA_1_3': 231.0, 'init_ShelterA_1_4': 236.0, 'init_ShelterA_1_6': 241.0, 'init_ShelterA_1_7': 284.0, 'init_ShelterA_1_8': 291.0, 'init_ShelterA_1_9': 297.0, 'init_ShelterA_1_10': 302.0, 'init_ShelterA_1_11': 307.0, 'init_ShelterA_1_13': 313.0, 'init_ShelterA_2_0': 318.0, 'init_ShelterA_1_14': 319.0, 'init_ShelterA_1_15': 326.0, 'init_ShelterA_1_16': 333.0, 'init_ShelterA_1_17': 341.0, 'init_ShelterA_2_5': 346.0, 'init_ShelterA_1_18': 350.0, 'init_ShelterA_1_19': 359.0, 'init_ShelterA_1_20': 367.0, 'init_ShelterA_1_21': 372.0, 'init_ShelterA_1_22': 379.0, 'init_ShelterA_2_12': 383.0, 'init_ShelterA_1_23': 386.0, 'init_ShelterA_1_24': 394.0, 'init_ShelterA_1_25': 403.0, 'init_ShelterA_1_27': 412.0, 'init_ShelterA_1_28': 422.0, 'init_ShelterA_1_29': 432.0, 'init_ShelterA_1_30': 441.0, 'init_ShelterA_1_31': 451.0, 'init_ShelterA_1_32': 461.0, 'init_ShelterA_1_33': 470.0, 'init_ShelterA_2_26': 473.0, 'init_ShelterA_1_34': 479.0, 'init_ShelterA_2_35': 481.0, 'init_ShelterA_1_36': 488.0, 'init_ShelterA_1_37': 498.0, 'init_ShelterA_1_39': 507.0, 'init_ShelterA_1_40': 516.0, 'init_ShelterA_1_41': 526.0, 'init_ShelterA_1_42': 535.0, 'init_ShelterA_2_44': 538.0, 'init_ShelterA_2_38': 547.0, 'init_ShelterA_1_46': 548.0, 'init_ShelterA_1_47': 558.0, 'init_ShelterA_1_43': 565.0, 'init_ShelterA_1_52': 565.0, 'init_ShelterA_1_45': 567.0, 'init_ShelterA_2_53': 568.0, 'init_ShelterA_1_48': 570.0, 'init_ShelterA_1_49': 573.0, 'init_ShelterA_1_56': 575.0, 'init_ShelterA_1_50': 576.0, 'init_ShelterA_1_51': 579.0, 'init_ShelterA_1_60': 580.0, 'init_ShelterA_2_66': 582.0, 'init_ShelterA_1_54': 587.0, 'init_ShelterA_1_55': 589.0, 'init_ShelterA_1_71': 590.0, 'init_ShelterA_2_73': 592.0, 'init_ShelterA_1_57': 621.0, 'init_ShelterA_1_58': 638.0, 'init_ShelterA_1_76': 644.0, 'init_ShelterA_1_59': 652.0, 'init_ShelterA_1_79': 652.0, 'init_ShelterA_2_80': 654.0, 'init_ShelterA_1_82': 664.0, 'init_ShelterA_1_61': 667.0, 'init_ShelterA_1_62': 669.0, 'init_ShelterA_1_83': 670.0, 'init_ShelterA_1_63': 672.0, 'init_ShelterA_1_64': 675.0, 'init_ShelterA_1_84': 676.0, 'init_ShelterA_1_65': 678.0, 'init_ShelterA_1_67': 681.0, 'init_ShelterA_1_85': 683.0, 'init_ShelterA_1_68': 684.0, 'init_ShelterA_1_69': 687.0, 'init_ShelterA_1_86': 688.0, 'init_ShelterA_1_70': 690.0, 'init_ShelterA_2_88': 690.0, 'init_ShelterA_1_72': 692.0, 'init_ShelterA_1_90': 695.0, 'init_ShelterA_1_74': 727.0, 'init_ShelterA_1_75': 731.0, 'init_ShelterA_1_77': 733.0, 'init_ShelterA_1_92': 734.0, 'init_ShelterA_1_78': 736.0, 'init_ShelterA_1_81': 742.0, 'init_ShelterA_1_93': 744.0, 'init_ShelterA_2_94': 746.0, 'init_ShelterA_1_95': 755.0, 'init_ShelterA_1_96': 762.0, 'init_ShelterA_1_87': 766.0, 'init_ShelterA_1_89': 768.0, 'init_ShelterA_1_98': 769.0, 'init_ShelterA_1_91': 774.0, 'init_ShelterA_1_99': 776.0, 'init_ShelterA_1_100': 785.0, 'init_ShelterA_1_101': 794.0, 'init_ShelterA_2_102': 796.0, 'init_ShelterA_1_106': 805.0, 'init_ShelterA_1_107': 809.0, 'init_ShelterA_1_108': 814.0, 'init_ShelterA_1_110': 823.0, 'init_ShelterA_1_113': 828.0, 'init_ShelterA_1_97': 831.0, 'init_ShelterA_1_103': 840.0, 'init_ShelterA_1_104': 841.0, 'init_ShelterA_1_105': 844.0, 'init_ShelterA_1_115': 846.0, 'init_ShelterA_1_117': 852.0, 'init_ShelterA_1_118': 858.0, 'init_ShelterA_1_120': 865.0, 'init_ShelterA_1_122': 871.0, 'init_ShelterA_2_123': 874.0, 'init_ShelterA_1_124': 879.0, 'init_ShelterA_1_125': 884.0, 'init_ShelterA_1_109': 902.0, 'init_ShelterA_1_111': 904.0, 'init_ShelterA_1_112': 910.0, 'init_ShelterA_1_114': 912.0, 'init_ShelterA_1_126': 917.0, 'init_ShelterA_1_128': 923.0, 'init_ShelterA_1_130': 927.0, 'init_ShelterA_1_116': 928.0, 'init_ShelterA_1_119': 930.0, 'init_ShelterA_1_121': 933.0, 'init_ShelterA_1_133': 935.0, 'init_ShelterA_2_140': 937.0, 'init_ShelterA_1_141': 947.0, 'init_ShelterA_2_142': 949.0, 'init_ShelterA_1_144': 1008.0, 'init_ShelterA_1_127': 1010.0, 'init_ShelterA_1_146': 1015.0, 'init_ShelterA_1_129': 1016.0, 'init_ShelterA_1_131': 1018.0, 'init_ShelterA_1_147': 1020.0, 'init_ShelterA_1_132': 1021.0, 'init_ShelterA_1_148': 1025.0, 'init_ShelterA_1_134': 1026.0, 'init_ShelterA_1_135': 1029.0, 'init_ShelterA_1_136': 1031.0, 'init_ShelterA_1_149': 1032.0, 'init_ShelterA_1_137': 1033.0, 'init_ShelterA_1_138': 1036.0, 'init_ShelterA_1_150': 1038.0, 'init_ShelterA_1_139': 1039.0, 'init_ShelterA_2_151': 1040.0, 'init_ShelterA_1_155': 1049.0, 'init_ShelterA_1_157': 1056.0, 'init_ShelterA_1_158': 1064.0, 'init_ShelterA_1_160': 1070.0, 'init_ShelterA_1_161': 1075.0, 'init_ShelterA_1_164': 1079.0, 'newveh_ShelterA_1_163_9': 1114.0, 'init_ShelterA_1_143': 1117.0, 'init_ShelterA_1_145': 1119.0, 'newveh_ShelterA_1_162_8': 1120.0, 'init_ShelterA_1_159': 1121.0, 'init_ShelterA_1_169': 1126.0, 'init_ShelterA_1_175': 1131.0, 'init_ShelterA_1_176': 1137.0, 'newveh_ShelterA_2_152_0': 1138.0, 'init_ShelterA_1_178': 1144.0, 'init_ShelterA_1_179': 1151.0, 'init_ShelterA_1_180': 1158.0, 'init_ShelterA_1_182': 1162.0, 'init_ShelterA_1_183': 1167.0, 'init_ShelterA_1_184': 1186.0, 'newveh_ShelterA_2_168_7': 1189.0, 'init_ShelterA_1_185': 1194.0, 'newveh_ShelterA_2_167_6': 1197.0, 'init_ShelterA_1_187': 1199.0, 'newveh_ShelterA_2_166_5': 1202.0, 'newveh_ShelterA_1_171_12': 1205.0, 'init_ShelterA_1_189': 1210.0, 'init_ShelterA_1_190': 1216.0, 'init_ShelterA_1_191': 1223.0, 'newveh_ShelterA_2_165_4': 1227.0, 'init_ShelterA_1_194': 1228.0, 'newveh_ShelterA_1_186_18': 1232.0, 'newveh_ShelterA_2_156_3': 1236.0, 'newveh_ShelterA_2_154_2': 1241.0, 'newveh_ShelterA_2_153_1': 1245.0, 'newveh_ShelterA_1_193_19': 1276.0, 'newveh_ShelterA_2_172_10': 1279.0, 'init_ShelterA_1_196': 1285.0, 'init_ShelterA_1_198': 1292.0, 'newveh_ShelterA_2_173_11': 1294.0, 'init_ShelterA_1_200': 1298.0, 'init_ShelterA_2_202': 1300.0, 'init_ShelterA_2_203': 1302.0, 'newveh_ShelterA_2_170_13': 1308.0, 'init_ShelterA_1_204': 1309.0, 'init_ShelterA_1_210': 1313.0, 'newveh_ShelterA_2_188_17': 1330.0, 'newveh_ShelterA_2_181_16': 1337.0, 'newveh_ShelterA_2_177_15': 1346.0, 'newveh_ShelterA_2_174_14': 1350.0, 'init_ShelterA_1_195': 1352.0, 'init_ShelterA_1_197': 1356.0, 'init_ShelterA_1_214': 1368.0, 'init_ShelterA_1_216': 1376.0, 'init_ShelterA_1_199': 1378.0, 'init_ShelterA_1_217': 1381.0, 'init_ShelterA_1_219': 1387.0, 'init_ShelterA_1_225': 1394.0, 'init_ShelterA_2_226': 1396.0, 'init_ShelterA_1_233': 1400.0, 'newveh_ShelterA_2_192_20': 1405.0, 'init_ShelterA_1_201': 1407.0, 'init_ShelterA_1_206': 1409.0, 'init_ShelterA_1_207': 1411.0, 'init_ShelterA_1_209': 1414.0, 'init_ShelterA_1_211': 1417.0, 'init_ShelterA_1_213': 1420.0, 'init_ShelterA_1_243': 1453.0, 'init_ShelterA_1_218': 1455.0, 'init_ShelterA_1_220': 1457.0, 'init_ShelterA_1_221': 1463.0, 'init_ShelterA_1_244': 1465.0, 'init_ShelterA_1_222': 1467.0, 'init_ShelterA_1_223': 1469.0, 'init_ShelterA_1_224': 1472.0, 'init_ShelterA_1_245': 1472.0, 'init_ShelterA_1_246': 1477.0, 'init_ShelterA_1_247': 1482.0, 'init_ShelterA_1_249': 1488.0, 'init_ShelterA_1_250': 1495.0, 'init_ShelterA_1_252': 1499.0, 'init_ShelterA_1_258': 1504.0, 'newveh_ShelterA_2_215_21': 1510.0, 'newveh_ShelterA_2_205_22': 1519.0, 'init_ShelterA_1_241': 1521.0, 'init_ShelterA_1_242': 1523.0, 'newveh_ShelterA_1_228_25': 1547.0, 'newveh_ShelterA_2_253_59': 1547.0, 'init_ShelterA_1_260': 1558.0, 'init_ShelterA_1_265': 1565.0, 'newveh_ShelterA_2_212_24': 1568.0, 'init_ShelterA_1_266': 1571.0, 'newveh_ShelterA_2_208_23': 1573.0, 'init_ShelterA_1_268': 1575.0, 'init_ShelterA_1_248': 1576.0, 'init_ShelterA_1_251': 1578.0, 'init_ShelterA_1_254': 1580.0, 'init_ShelterA_1_269': 1580.0, 'init_ShelterA_1_255': 1582.0, 'init_ShelterA_1_256': 1585.0, 'newveh_ShelterA_2_227_26': 1602.0, 'init_ShelterA_1_271': 1634.0, 'init_ShelterA_1_273': 1639.0, 'init_ShelterA_1_286': 1646.0, 'newveh_ShelterA_2_267_67': 1646.0, 'init_ShelterA_1_262': 1648.0, 'init_ShelterA_1_287': 1650.0, 'newveh_ShelterA_2_232_30': 1653.0, 'init_ShelterA_1_288': 1660.0, 'newveh_ShelterA_2_231_29': 1662.0, 'init_ShelterA_1_289': 1668.0, 'newveh_ShelterA_2_230_28': 1668.0, 'init_ShelterA_2_290': 1670.0, 'newveh_ShelterA_2_229_27': 1676.0, 'init_ShelterA_1_291': 1679.0, 'newveh_ShelterA_2_234_31': 1682.0, 'init_ShelterA_1_292': 1683.0, 'newveh_ShelterA_2_240_37': 1687.0, 'init_ShelterA_1_293': 1688.0, 'newveh_ShelterA_2_239_36': 1693.0, 'newveh_ShelterA_2_238_35': 1701.0, 'newveh_ShelterA_2_237_34': 1706.0, 'newveh_ShelterA_2_236_33': 1710.0, 'init_ShelterA_1_298': 1726.0, 'newveh_ShelterA_2_301_79': 1729.0, 'newveh_ShelterA_2_303_80': 1734.0, 'init_ShelterA_1_299': 1735.0, 'init_ShelterA_1_300': 1742.0, 'init_ShelterA_1_302': 1748.0, 'init_ShelterA_1_304': 1754.0, 'init_ShelterA_1_305': 1761.0, 'init_ShelterA_1_306': 1768.0, 'newveh_ShelterA_2_235_32': 1770.0, 'init_ShelterA_1_276': 1772.0, 'init_ShelterA_1_281': 1774.0, 'init_ShelterA_1_307': 1776.0, 'newveh_ShelterA_2_257_38': 1782.0, 'init_ShelterA_1_309': 1783.0, 'init_ShelterA_1_312': 1787.0, 'newveh_ShelterA_2_264_42': 1788.0, 'init_ShelterA_1_313': 1791.0, 'newveh_ShelterA_2_263_41': 1796.0, 'newveh_ShelterA_2_261_40': 1801.0, 'newveh_ShelterA_2_310_90': 1805.0, 'newveh_ShelterA_2_259_39': 1812.0, 'init_ShelterA_1_320': 1824.0, 'init_ShelterA_2_322': 1826.0, 'init_ShelterA_1_308': 1838.0, 'newveh_ShelterA_1_285_54': 1841.0, 'init_ShelterA_1_324': 1847.0, 'init_ShelterA_1_330': 1854.0, 'init_ShelterA_1_332': 1858.0, 'init_ShelterA_1_333': 1863.0, 'newveh_ShelterA_2_270_43': 1877.0, 'newveh_ShelterA_2_280_48': 1886.0, 'newveh_ShelterA_2_279_47': 1891.0, 'newveh_ShelterA_2_278_46': 1895.0, 'init_ShelterA_1_339': 1906.0, 'init_ShelterA_2_344': 1909.0, 'newveh_ShelterA_2_277_45': 1916.0, 'init_ShelterA_1_345': 1925.0, 'newveh_ShelterA_2_272_44': 1925.0, 'init_ShelterA_1_321': 1927.0, 'init_ShelterA_2_346': 1927.0, 'newveh_ShelterA_2_284_53': 1933.0, 'init_ShelterA_1_347': 1936.0, 'newveh_ShelterA_2_283_52': 1938.0, 'init_ShelterA_1_348': 1942.0, 'init_ShelterA_1_352': 1950.0, 'newveh_ShelterA_2_282_51': 1955.0, 'init_ShelterA_1_355': 1956.0, 'init_ShelterA_1_356': 1961.0, 'newveh_ShelterA_2_274_49': 1962.0, 'init_ShelterA_1_357': 1965.0, 'newveh_ShelterA_2_275_50': 1970.0, 'newveh_ShelterA_2_294_55': 1977.0, 'init_ShelterA_1_331': 1979.0, 'newveh_ShelterA_2_351_105': 1984.0, 'newveh_ShelterA_2_360_106': 1989.0, 'init_ShelterA_1_338': 1991.0, 'init_ShelterA_1_358': 1994.0, 'init_ShelterA_1_341': 1995.0, 'init_ShelterA_1_359': 1999.0, 'init_ShelterA_1_361': 2009.0, 'init_ShelterA_1_362': 2016.0, 'newveh_ShelterA_2_295_56': 2016.0, 'init_ShelterA_1_363': 2021.0, 'newveh_ShelterA_2_296_57': 2025.0, 'init_ShelterA_1_364': 2027.0, 'newveh_ShelterA_2_297_58': 2031.0, 'init_ShelterA_1_342': 2033.0, 'init_ShelterA_1_370': 2033.0, 'init_ShelterA_1_343': 2035.0, 'init_ShelterA_1_371': 2040.0, 'init_ShelterA_1_372': 2047.0, 'init_ShelterA_1_373': 2051.0, 'newveh_ShelterA_1_315_62': 2056.0, 'init_ShelterA_1_377': 2088.0, 'newveh_ShelterA_1_323_68': 2099.0, 'init_ShelterA_1_386': 2107.0, 'init_ShelterA_2_387': 2109.0, 'init_ShelterA_1_388': 2117.0, 'newveh_ShelterA_2_311_60': 2118.0, 'init_ShelterA_1_391': 2123.0, 'newveh_ShelterA_2_314_61': 2124.0, 'newveh_ShelterA_2_316_63': 2129.0, 'init_ShelterA_1_392': 2131.0, 'init_ShelterA_1_393': 2138.0, 'newveh_ShelterA_2_317_64': 2138.0, 'init_ShelterA_1_394': 2142.0, 'newveh_ShelterA_2_318_65': 2143.0, 'init_ShelterA_1_395': 2147.0, 'newveh_ShelterA_2_319_66': 2147.0, 'init_ShelterA_1_379': 2158.0, 'init_ShelterA_1_389': 2184.0, 'init_ShelterA_1_390': 2186.0, 'newveh_ShelterA_1_354_81': 2186.0, 'newveh_ShelterA_2_337_72': 2242.0, 'newveh_ShelterA_2_336_71': 2248.0, 'newveh_ShelterA_2_335_70': 2252.0, 'newveh_ShelterA_1_375_91': 2269.0, 'newveh_ShelterA_1_381_92': 2273.0, 'newveh_ShelterA_2_334_69': 2280.0, 'newveh_ShelterA_2_325_73': 2286.0, 'newveh_ShelterA_2_340_78': 2291.0, 'newveh_ShelterA_2_349_83': 2300.0, 'newveh_ShelterA_2_365_85': 2307.0, 'newveh_ShelterA_2_367_87': 2313.0, 'newveh_ShelterA_2_366_86': 2319.0, 'newveh_ShelterA_2_329_77': 2326.0, 'newveh_ShelterA_2_328_76': 2333.0, 'newveh_ShelterA_2_327_75': 2340.0, 'newveh_ShelterA_2_326_74': 2346.0, 'newveh_ShelterA_2_369_89': 2353.0, 'newveh_ShelterA_2_368_88': 2359.0, 'newveh_ShelterA_2_353_82': 2366.0, 'newveh_ShelterA_2_350_84': 2371.0, 'newveh_ShelterA_2_384_99': 2377.0, 'newveh_ShelterA_2_383_98': 2381.0, 'newveh_ShelterA_2_382_97': 2386.0, 'newveh_ShelterA_2_396_104': 2393.0, 'newveh_ShelterA_2_385_100': 2399.0, 'newveh_ShelterA_2_380_96': 2404.0, 'newveh_ShelterA_2_378_95': 2411.0, 'newveh_ShelterA_2_376_94': 2417.0, 'newveh_ShelterA_2_374_93': 2425.0, 'newveh_ShelterA_2_399_103': 2432.0, 'newveh_ShelterA_2_398_102': 2437.0, 'newveh_ShelterA_2_397_101': 2441.0}
vehicle_abandant_time_by_pedestrianID_dict:{}
walking_distance_by_pedestrianID_dict:{}
route_change_time_by_vehID_dict:{'init_ShelterA_1_50': 370.0, 'init_ShelterA_2_44': 370.0, 'init_ShelterA_2_53': 370.0, 'init_ShelterA_1_43': 380.0, 'init_ShelterA_1_45': 380.0, 'init_ShelterA_1_48': 380.0, 'init_ShelterA_1_49': 380.0, 'init_ShelterA_1_51': 380.0, 'init_ShelterA_1_54': 410.0, 'init_ShelterA_1_55': 410.0, 'init_ShelterA_1_58': 420.0, 'init_ShelterA_1_57': 430.0, 'init_ShelterA_1_62': 430.0, 'init_ShelterA_2_66': 430.0, 'init_ShelterA_1_65': 440.0, 'init_ShelterA_1_68': 440.0, 'init_ShelterA_1_59': 450.0, 'init_ShelterA_1_64': 460.0, 'init_ShelterA_1_69': 460.0, 'init_ShelterA_1_63': 470.0, 'init_ShelterA_1_72': 470.0, 'init_ShelterA_1_67': 480.0, 'init_ShelterA_1_70': 480.0, 'init_ShelterA_1_61': 490.0, 'init_ShelterA_2_73': 490.0, 'init_ShelterA_1_74': 500.0, 'init_ShelterA_1_75': 500.0, 'init_ShelterA_1_77': 500.0, 'init_ShelterA_1_78': 500.0, 'init_ShelterA_2_80': 500.0, 'init_ShelterA_1_81': 510.0, 'init_ShelterA_2_88': 520.0, 'init_ShelterA_1_87': 530.0, 'init_ShelterA_1_89': 530.0, 'init_ShelterA_1_91': 530.0, 'init_ShelterA_1_97': 590.0, 'init_ShelterA_2_94': 590.0, 'init_ShelterA_1_103': 600.0, 'init_ShelterA_1_104': 600.0, 'init_ShelterA_1_105': 600.0, 'init_ShelterA_2_102': 600.0, 'init_ShelterA_1_109': 610.0, 'init_ShelterA_1_152': 640.0, 'init_ShelterA_1_153': 640.0, 'init_ShelterA_1_154': 640.0, 'init_ShelterA_1_156': 640.0, 'init_ShelterA_1_165': 640.0, 'init_ShelterA_1_166': 640.0, 'init_ShelterA_1_167': 640.0, 'init_ShelterA_1_168': 640.0, 'init_ShelterA_2_162': 640.0, 'init_ShelterA_2_163': 640.0, 'init_ShelterA_1_111': 660.0, 'init_ShelterA_1_112': 660.0, 'init_ShelterA_1_114': 660.0, 'init_ShelterA_1_116': 680.0, 'init_ShelterA_1_121': 690.0, 'init_ShelterA_2_123': 690.0, 'init_ShelterA_1_127': 700.0, 'init_ShelterA_1_172': 700.0, 'init_ShelterA_1_173': 700.0, 'init_ShelterA_2_171': 710.0, 'init_ShelterA_2_142': 720.0, 'init_ShelterA_1_119': 730.0, 'init_ShelterA_1_170': 730.0, 'init_ShelterA_1_174': 730.0, 'init_ShelterA_1_177': 730.0, 'init_ShelterA_1_181': 730.0, 'init_ShelterA_1_188': 730.0, 'init_ShelterA_2_186': 730.0, 'init_ShelterA_2_193': 750.0, 'init_ShelterA_1_138': 760.0, 'init_ShelterA_1_135': 770.0, 'init_ShelterA_1_136': 770.0, 'init_ShelterA_1_137': 770.0, 'init_ShelterA_1_139': 770.0, 'init_ShelterA_1_192': 770.0, 'init_ShelterA_2_140': 770.0, 'init_ShelterA_1_132': 780.0, 'init_ShelterA_1_134': 780.0, 'init_ShelterA_1_143': 780.0, 'init_ShelterA_1_131': 820.0, 'init_ShelterA_1_129': 830.0, 'init_ShelterA_2_151': 850.0, 'init_ShelterA_1_145': 860.0, 'init_ShelterA_1_159': 860.0, 'init_ShelterA_1_215': 890.0, 'init_ShelterA_1_205': 900.0, 'init_ShelterA_1_208': 900.0, 'init_ShelterA_1_212': 900.0, 'init_ShelterA_2_228': 950.0, 'init_ShelterA_1_227': 970.0, 'init_ShelterA_1_229': 970.0, 'init_ShelterA_1_230': 970.0, 'init_ShelterA_1_231': 970.0, 'init_ShelterA_1_232': 970.0, 'init_ShelterA_1_234': 990.0, 'init_ShelterA_1_235': 990.0, 'init_ShelterA_1_236': 990.0, 'init_ShelterA_1_237': 990.0, 'init_ShelterA_1_238': 990.0, 'init_ShelterA_1_239': 990.0, 'init_ShelterA_1_240': 990.0, 'init_ShelterA_1_197': 1040.0, 'init_ShelterA_2_202': 1070.0, 'init_ShelterA_2_203': 1070.0, 'init_ShelterA_1_199': 1080.0, 'init_ShelterA_1_201': 1080.0, 'init_ShelterA_1_257': 1080.0, 'init_ShelterA_1_259': 1080.0, 'init_ShelterA_1_261': 1080.0, 'init_ShelterA_1_263': 1080.0, 'init_ShelterA_1_264': 1080.0, 'init_ShelterA_1_195': 1100.0, 'init_ShelterA_1_209': 1110.0, 'init_ShelterA_1_270': 1150.0, 'init_ShelterA_1_272': 1150.0, 'init_ShelterA_1_277': 1150.0, 'init_ShelterA_1_278': 1150.0, 'init_ShelterA_1_279': 1150.0, 'init_ShelterA_1_280': 1150.0, 'init_ShelterA_1_274': 1160.0, 'init_ShelterA_1_275': 1160.0, 'init_ShelterA_1_282': 1160.0, 'init_ShelterA_1_283': 1160.0, 'init_ShelterA_1_284': 1160.0, 'init_ShelterA_2_226': 1160.0, 'init_ShelterA_1_220': 1170.0, 'init_ShelterA_1_221': 1170.0, 'init_ShelterA_1_222': 1170.0, 'init_ShelterA_1_223': 1170.0, 'init_ShelterA_2_285': 1170.0, 'init_ShelterA_1_241': 1180.0, 'init_ShelterA_1_242': 1180.0, 'init_ShelterA_1_213': 1190.0, 'init_ShelterA_1_207': 1200.0, 'init_ShelterA_1_211': 1200.0, 'init_ShelterA_1_218': 1200.0, 'init_ShelterA_1_224': 1200.0, 'init_ShelterA_1_206': 1210.0, 'init_ShelterA_1_294': 1220.0, 'init_ShelterA_1_295': 1220.0, 'init_ShelterA_1_296': 1220.0, 'init_ShelterA_1_297': 1220.0, 'init_ShelterA_1_253': 1260.0, 'init_ShelterA_1_281': 1310.0, 'init_ShelterA_1_311': 1320.0, 'init_ShelterA_1_314': 1320.0, 'init_ShelterA_2_315': 1320.0, 'init_ShelterA_1_316': 1330.0, 'init_ShelterA_1_317': 1330.0, 'init_ShelterA_1_318': 1330.0, 'init_ShelterA_1_319': 1330.0, 'init_ShelterA_2_322': 1340.0, 'init_ShelterA_1_267': 1350.0, 'init_ShelterA_1_248': 1360.0, 'init_ShelterA_1_254': 1360.0, 'init_ShelterA_1_255': 1360.0, 'init_ShelterA_2_323': 1360.0, 'init_ShelterA_1_251': 1370.0, 'init_ShelterA_1_256': 1370.0, 'init_ShelterA_1_262': 1380.0, 'init_ShelterA_1_334': 1400.0, 'init_ShelterA_1_335': 1400.0, 'init_ShelterA_1_336': 1400.0, 'init_ShelterA_1_337': 1400.0, 'init_ShelterA_1_325': 1410.0, 'init_ShelterA_1_326': 1410.0, 'init_ShelterA_1_327': 1410.0, 'init_ShelterA_1_328': 1410.0, 'init_ShelterA_1_329': 1410.0, 'init_ShelterA_1_340': 1410.0, 'init_ShelterA_2_290': 1420.0, 'init_ShelterA_1_276': 1430.0, 'init_ShelterA_1_301': 1440.0, 'init_ShelterA_1_303': 1450.0, 'init_ShelterA_1_308': 1470.0, 'init_ShelterA_2_354': 1470.0, 'init_ShelterA_1_353': 1480.0, 'init_ShelterA_1_349': 1490.0, 'init_ShelterA_1_350': 1490.0, 'init_ShelterA_1_365': 1490.0, 'init_ShelterA_1_366': 1500.0, 'init_ShelterA_1_367': 1500.0, 'init_ShelterA_1_368': 1500.0, 'init_ShelterA_1_369': 1500.0, 'init_ShelterA_1_310': 1510.0, 'init_ShelterA_1_321': 1520.0, 'init_ShelterA_2_375': 1560.0, 'init_ShelterA_2_381': 1570.0, 'init_ShelterA_1_374': 1580.0, 'init_ShelterA_1_376': 1580.0, 'init_ShelterA_1_378': 1580.0, 'init_ShelterA_1_380': 1580.0, 'init_ShelterA_1_382': 1580.0, 'init_ShelterA_1_383': 1580.0, 'init_ShelterA_1_384': 1580.0, 'init_ShelterA_1_385': 1580.0, 'init_ShelterA_1_397': 1650.0, 'init_ShelterA_1_398': 1650.0, 'init_ShelterA_1_399': 1650.0, 'init_ShelterA_1_396': 1660.0, 'init_ShelterA_2_346': 1670.0, 'init_ShelterA_1_342': 1680.0, 'init_ShelterA_1_343': 1680.0, 'init_ShelterA_1_351': 1680.0, 'init_ShelterA_2_344': 1680.0, 'init_ShelterA_1_338': 1690.0, 'init_ShelterA_1_341': 1690.0, 'init_ShelterA_1_360': 1690.0, 'init_ShelterA_1_331': 1700.0, 'init_ShelterA_1_379': 1730.0, 'init_ShelterA_2_387': 1780.0, 'init_ShelterA_1_389': 1990.0, 'init_ShelterA_1_390': 1990.0}
pedestrian_count:0
route_changed_vehicle_count:215
route_change_event_count:215
rate_vehicle_abandonment:0.00%
wrong_way_driving_count:0
vehicle_abandonment_count:0
normalcy_bias_route_change_count:143
majority_bias_route_change_count:72
lane_changed_vehicle_count:0
info_obtained_lanechange_count:0
elapsed_time_lanechange_count:0
majority_bias_lanechange_count:0

=== Job Result ===
end=2026-07-13T01:33:42+0900
elapsed_seconds=497
exit_code=0
status=SUCCESS
