=== Job Info ===
job_name=va_s8_e1.0_v1.0_r16
host=schubert
pid=125100
scenario=8
early_rate=1.0
v2v_rate=1.0
run_id=16
config=/home/katagi/vehicle-assistant-system/scenarios/JIP/configs/config_scenario_8.toml
output_dir=/home/katagi/vehicle-assistant-system/schubert_logs/va_s8_e1.0_v1.0_r16
start=2026-07-13T02:18:40+0900
python_version=Python 3.12.3
sumo_version=Eclipse SUMO sumo Version v1_23_1+0435-630512a

=== Command ===
cd /home/katagi/vehicle-assistant-system/schubert_logs/va_s8_e1.0_v1.0_r16
PYTHONPATH=/home/katagi/vehicle-assistant-system:/home/katagi/tmp/sumo/tools:/home/katagi/local/sumo/tools:/home/katagi/tmp/sumo/tools:/home/katagi/local/sumo/tools:/home/katagi/tmp/sumo/tools:/home/katagi/local/sumo/tools: python3 -W ignore::UserWarning -m scenarios.JIP.1-1-4.simulation.runner_simulator --nogui /home/katagi/vehicle-assistant-system/scenarios/JIP/configs/config_scenario_8.toml 1.0 1.0
simulation_pid=125120
Step #0.00 (0ms ?*RT. ?UPS, TraCI: 338ms, vehicles TOT 1 ACT 1 BUF 0)                     Step #100.00 (1ms ~= 1000.00*RT, ~26000.00UPS, TraCI: 17ms, vehicles TOT 26 ACT 26 BUF 0) Step #200.00 (0ms ?*RT. ?UPS, TraCI: 38ms, vehicles TOT 51 ACT 51 BUF 0)                  Step #300.00 (0ms ?*RT. ?UPS, TraCI: 54ms, vehicles TOT 77 ACT 77 BUF 0)                  Step #400.00 (0ms ?*RT. ?UPS, TraCI: 66ms, vehicles TOT 104 ACT 104 BUF 0)                Step #500.00 (0ms ?*RT. ?UPS, TraCI: 1347ms, vehicles TOT 131 ACT 131 BUF 0)              Step #600.00 (0ms ?*RT. ?UPS, TraCI: 1001ms, vehicles TOT 158 ACT 158 BUF 0)              Step #700.00 (0ms ?*RT. ?UPS, TraCI: 1403ms, vehicles TOT 186 ACT 186 BUF 0)              Step #800.00 (1ms ~= 1000.00*RT, ~210000.00UPS, TraCI: 185ms, vehicles TOT 210 ACT 210 BUFStep #900.00 (0ms ?*RT. ?UPS, TraCI: 1247ms, vehicles TOT 238 ACT 211 BUF 33)             Step #1000.00 (1ms ~= 1000.00*RT, ~234000.00UPS, TraCI: 1368ms, vehicles TOT 272 ACT 234 BStep #1100.00 (0ms ?*RT. ?UPS, TraCI: 952ms, vehicles TOT 303 ACT 253 BUF 51)             Step #1200.00 (1ms ~= 1000.00*RT, ~284000.00UPS, TraCI: 1455ms, vehicles TOT 345 ACT 284 BStep #1300.00 (0ms ?*RT. ?UPS, TraCI: 1887ms, vehicles TOT 375 ACT 296 BUF 72)            Step #1400.00 (1ms ~= 1000.00*RT, ~322000.00UPS, TraCI: 2503ms, vehicles TOT 408 ACT 322 BStep #1500.00 (1ms ~= 1000.00*RT, ~341000.00UPS, TraCI: 2046ms, vehicles TOT 439 ACT 341 BStep #1600.00 (1ms ~= 1000.00*RT, ~355000.00UPS, TraCI: 1691ms, vehicles TOT 463 ACT 355 BStep #1700.00 (1ms ~= 1000.00*RT, ~381000.00UPS, TraCI: 1926ms, vehicles TOT 492 ACT 381 BStep #1800.00 (1ms ~= 1000.00*RT, ~400000.00UPS, TraCI: 1990ms, vehicles TOT 513 ACT 400 BStep #1900.00 (1ms ~= 1000.00*RT, ~400000.00UPS, TraCI: 2374ms, vehicles TOT 513 ACT 400 BStep #2000.00 (0ms ?*RT. ?UPS, TraCI: 1855ms, vehicles TOT 513 ACT 400 BUF 0)             Step #2100.00 (1ms ~= 1000.00*RT, ~400000.00UPS, TraCI: 558ms, vehicles TOT 513 ACT 400 BUStep #2200.00 (1ms ~= 1000.00*RT, ~400000.00UPS, TraCI: 197ms, vehicles TOT 513 ACT 400 BUStep #2300.00 (0ms ?*RT. ?UPS, TraCI: 90ms, vehicles TOT 513 ACT 400 BUF 0)               Step #2400.00 (0ms ?*RT. ?UPS, TraCI: 84ms, vehicles TOT 513 ACT 400 BUF 0)               Step #2500.00 (0ms ?*RT. ?UPS, TraCI: 79ms, vehicles TOT 513 ACT 400 BUF 0)               Step #2600.00 (0ms ?*RT. ?UPS, TraCI: 78ms, vehicles TOT 513 ACT 400 BUF 0)               Step #2700.00 (0ms ?*RT. ?UPS, TraCI: 79ms, vehicles TOT 513 ACT 400 BUF 0)               Step #2800.00 (0ms ?*RT. ?UPS, TraCI: 77ms, vehicles TOT 513 ACT 400 BUF 0)               Step #2900.00 (0ms ?*RT. ?UPS, TraCI: 76ms, vehicles TOT 513 ACT 400 BUF 0)               Step #3000.00 (0ms ?*RT. ?UPS, TraCI: 78ms, vehicles TOT 513 ACT 400 BUF 0)               
 Retrying in 1 seconds
出現数: {'A1': 359, 'A2': 41}
割合:
  Total: 400
  A1: 359 (89.75%)
  A2: 41 (10.25%)
  B1: 0 (0.00%)
  B2: 0 (0.00%)
mean elapsed_time: 527.99
OK all vehs arrived 
平均渋滞継続時間: 441.21秒
OK all vehicle abandonment were detected
282
118
===== Simlation Result Summary =====
avg_congestion_duration: 441.21 
arrival_time_by_vehID_dict:{'init_ShelterA_1_0': 205.0, 'init_ShelterA_1_1': 210.0, 'init_ShelterA_1_2': 224.0, 'init_ShelterA_1_3': 231.0, 'init_ShelterA_1_4': 237.0, 'init_ShelterA_1_5': 244.0, 'init_ShelterA_1_6': 249.0, 'init_ShelterA_1_7': 253.0, 'init_ShelterA_1_8': 283.0, 'init_ShelterA_1_9': 289.0, 'init_ShelterA_1_10': 295.0, 'init_ShelterA_1_11': 300.0, 'init_ShelterA_1_12': 305.0, 'init_ShelterA_1_13': 311.0, 'init_ShelterA_1_14': 318.0, 'init_ShelterA_1_16': 325.0, 'init_ShelterA_1_17': 332.0, 'init_ShelterA_1_18': 341.0, 'init_ShelterA_1_19': 350.0, 'init_ShelterA_1_20': 358.0, 'init_ShelterA_1_21': 364.0, 'init_ShelterA_1_22': 368.0, 'init_ShelterA_1_23': 373.0, 'init_ShelterA_1_24': 382.0, 'init_ShelterA_1_25': 389.0, 'init_ShelterA_1_28': 394.0, 'init_ShelterA_1_31': 400.0, 'init_ShelterA_1_32': 405.0, 'init_ShelterA_2_15': 408.0, 'init_ShelterA_1_33': 411.0, 'init_ShelterA_1_34': 418.0, 'init_ShelterA_1_35': 425.0, 'init_ShelterA_1_36': 433.0, 'init_ShelterA_1_37': 441.0, 'init_ShelterA_1_38': 448.0, 'init_ShelterA_1_39': 452.0, 'init_ShelterA_1_40': 457.0, 'init_ShelterA_1_41': 468.0, 'init_ShelterA_1_43': 474.0, 'init_ShelterA_2_26': 476.0, 'init_ShelterA_1_44': 482.0, 'init_ShelterA_2_27': 482.0, 'init_ShelterA_2_29': 487.0, 'init_ShelterA_1_45': 488.0, 'init_ShelterA_1_46': 494.0, 'init_ShelterA_1_47': 500.0, 'init_ShelterA_2_30': 503.0, 'init_ShelterA_1_50': 507.0, 'init_ShelterA_1_51': 514.0, 'init_ShelterA_2_52': 517.0, 'init_ShelterA_1_53': 526.0, 'init_ShelterA_1_54': 534.0, 'init_ShelterA_2_55': 536.0, 'init_ShelterA_1_56': 542.0, 'init_ShelterA_1_57': 546.0, 'init_ShelterA_1_58': 560.0, 'init_ShelterA_1_62': 565.0, 'init_ShelterA_2_66': 567.0, 'init_ShelterA_2_68': 569.0, 'init_ShelterA_2_69': 572.0, 'init_ShelterA_2_42': 578.0, 'init_ShelterA_2_48': 584.0, 'init_ShelterA_2_49': 589.0, 'init_ShelterA_1_59': 640.0, 'init_ShelterA_1_75': 647.0, 'init_ShelterA_1_60': 648.0, 'init_ShelterA_1_61': 650.0, 'init_ShelterA_1_63': 653.0, 'init_ShelterA_1_64': 656.0, 'init_ShelterA_1_80': 656.0, 'init_ShelterA_1_65': 659.0, 'init_ShelterA_1_81': 661.0, 'init_ShelterA_1_84': 666.0, 'init_ShelterA_1_67': 668.0, 'init_ShelterA_1_70': 676.0, 'init_ShelterA_1_88': 676.0, 'init_ShelterA_1_71': 678.0, 'init_ShelterA_2_92': 679.0, 'init_ShelterA_1_72': 681.0, 'init_ShelterA_1_73': 684.0, 'init_ShelterA_1_74': 687.0, 'init_ShelterA_2_93': 718.0, 'init_ShelterA_1_76': 734.0, 'init_ShelterA_1_94': 735.0, 'init_ShelterA_1_77': 736.0, 'init_ShelterA_1_78': 739.0, 'init_ShelterA_1_97': 741.0, 'init_ShelterA_1_79': 742.0, 'init_ShelterA_1_82': 745.0, 'init_ShelterA_1_83': 749.0, 'init_ShelterA_1_85': 751.0, 'init_ShelterA_1_99': 754.0, 'init_ShelterA_1_86': 756.0, 'init_ShelterA_2_101': 756.0, 'init_ShelterA_1_87': 760.0, 'init_ShelterA_1_89': 762.0, 'init_ShelterA_1_102': 765.0, 'init_ShelterA_1_90': 769.0, 'init_ShelterA_1_103': 771.0, 'init_ShelterA_1_91': 771.0, 'init_ShelterA_1_104': 777.0, 'init_ShelterA_1_107': 783.0, 'init_ShelterA_1_108': 788.0, 'init_ShelterA_1_109': 792.0, 'init_ShelterA_2_114': 823.0, 'init_ShelterA_1_121': 852.0, 'init_ShelterA_1_95': 853.0, 'init_ShelterA_2_122': 854.0, 'init_ShelterA_1_96': 855.0, 'init_ShelterA_1_98': 858.0, 'init_ShelterA_1_100': 861.0, 'init_ShelterA_1_105': 864.0, 'init_ShelterA_1_106': 867.0, 'init_ShelterA_1_110': 887.0, 'init_ShelterA_2_131': 909.0, 'init_ShelterA_1_111': 926.0, 'init_ShelterA_1_112': 928.0, 'init_ShelterA_1_113': 931.0, 'init_ShelterA_1_115': 933.0, 'init_ShelterA_1_116': 941.0, 'init_ShelterA_1_117': 943.0, 'init_ShelterA_1_118': 945.0, 'init_ShelterA_1_119': 947.0, 'init_ShelterA_1_140': 949.0, 'init_ShelterA_1_120': 950.0, 'init_ShelterA_1_123': 953.0, 'init_ShelterA_1_124': 956.0, 'init_ShelterA_1_125': 960.0, 'init_ShelterA_1_126': 962.0, 'init_ShelterA_1_127': 1001.0, 'init_ShelterA_1_128': 1003.0, 'init_ShelterA_1_129': 1005.0, 'init_ShelterA_1_145': 1005.0, 'init_ShelterA_1_147': 1011.0, 'init_ShelterA_1_130': 1012.0, 'init_ShelterA_1_132': 1014.0, 'init_ShelterA_1_133': 1016.0, 'init_ShelterA_1_149': 1016.0, 'init_ShelterA_1_134': 1018.0, 'init_ShelterA_2_155': 1018.0, 'init_ShelterA_1_135': 1021.0, 'init_ShelterA_1_136': 1036.0, 'init_ShelterA_1_137': 1038.0, 'init_ShelterA_1_138': 1040.0, 'init_ShelterA_1_139': 1058.0, 'init_ShelterA_1_141': 1060.0, 'init_ShelterA_1_142': 1062.0, 'init_ShelterA_1_143': 1065.0, 'init_ShelterA_1_144': 1071.0, 'init_ShelterA_1_146': 1096.0, 'init_ShelterA_1_148': 1098.0, 'init_ShelterA_1_150': 1115.0, 'init_ShelterA_1_151': 1117.0, 'init_ShelterA_1_152': 1119.0, 'init_ShelterA_1_153': 1129.0, 'init_ShelterA_1_154': 1131.0, 'init_ShelterA_1_156': 1133.0, 'init_ShelterA_1_157': 1136.0, 'init_ShelterA_1_158': 1138.0, 'init_ShelterA_1_159': 1141.0, 'init_ShelterA_1_160': 1143.0, 'init_ShelterA_1_161': 1169.0, 'init_ShelterA_1_162': 1178.0, 'init_ShelterA_1_178': 1179.0, 'init_ShelterA_1_179': 1190.0, 'init_ShelterA_1_163': 1192.0, 'init_ShelterA_1_180': 1195.0, 'init_ShelterA_1_164': 1197.0, 'init_ShelterA_2_181': 1197.0, 'init_ShelterA_1_165': 1199.0, 'init_ShelterA_1_166': 1201.0, 'init_ShelterA_1_167': 1203.0, 'init_ShelterA_1_168': 1205.0, 'init_ShelterA_1_184': 1206.0, 'init_ShelterA_1_169': 1208.0, 'init_ShelterA_1_170': 1211.0, 'init_ShelterA_1_216': 1211.0, 'init_ShelterA_1_171': 1214.0, 'init_ShelterA_1_172': 1217.0, 'init_ShelterA_1_173': 1220.0, 'init_ShelterA_1_174': 1223.0, 'init_ShelterA_1_175': 1225.0, 'init_ShelterA_1_176': 1228.0, 'init_ShelterA_1_177': 1233.0, 'init_ShelterA_1_182': 1288.0, 'init_ShelterA_1_183': 1290.0, 'newveh_ShelterA_2_185_0': 1322.0, 'init_ShelterA_1_208': 1324.0, 'init_ShelterA_1_213': 1326.0, 'init_ShelterA_1_214': 1328.0, 'init_ShelterA_1_215': 1331.0, 'init_ShelterA_1_217': 1334.0, 'newveh_ShelterA_2_186_1': 1343.0, 'newveh_ShelterA_2_187_2': 1347.0, 'newveh_ShelterA_2_188_3': 1352.0, 'newveh_ShelterA_2_189_4': 1376.0, 'newveh_ShelterA_2_190_5': 1382.0, 'newveh_ShelterA_1_210_26': 1384.0, 'newveh_ShelterA_2_191_6': 1388.0, 'init_ShelterA_1_218': 1391.0, 'newveh_ShelterA_2_192_7': 1393.0, 'init_ShelterA_1_219': 1396.0, 'init_ShelterA_1_228': 1401.0, 'newveh_ShelterA_2_193_8': 1401.0, 'newveh_ShelterA_2_194_9': 1406.0, 'init_ShelterA_1_234': 1408.0, 'newveh_ShelterA_2_195_10': 1410.0, 'init_ShelterA_1_236': 1413.0, 'init_ShelterA_1_237': 1417.0, 'newveh_ShelterA_2_196_11': 1421.0, 'newveh_ShelterA_2_197_12': 1428.0, 'newveh_ShelterA_2_198_13': 1434.0, 'newveh_ShelterA_2_199_14': 1440.0, 'newveh_ShelterA_2_200_15': 1447.0, 'init_ShelterA_2_241': 1451.0, 'newveh_ShelterA_2_201_16': 1455.0, 'newveh_ShelterA_2_202_17': 1462.0, 'init_ShelterA_1_242': 1465.0, 'newveh_ShelterA_2_203_18': 1470.0, 'init_ShelterA_1_245': 1474.0, 'newveh_ShelterA_2_204_19': 1477.0, 'init_ShelterA_1_248': 1481.0, 'newveh_ShelterA_2_205_20': 1482.0, 'init_ShelterA_1_249': 1486.0, 'newveh_ShelterA_2_206_21': 1486.0, 'newveh_ShelterA_1_227_27': 1492.0, 'newveh_ShelterA_2_207_22': 1496.0, 'init_ShelterA_1_259': 1498.0, 'init_ShelterA_1_260': 1503.0, 'newveh_ShelterA_2_212_25': 1503.0, 'init_ShelterA_1_264': 1507.0, 'newveh_ShelterA_2_211_24': 1511.0, 'newveh_ShelterA_2_209_23': 1532.0, 'init_ShelterA_1_220': 1534.0, 'init_ShelterA_1_224': 1536.0, 'init_ShelterA_1_230': 1538.0, 'init_ShelterA_1_238': 1540.0, 'init_ShelterA_1_239': 1543.0, 'init_ShelterA_1_240': 1545.0, 'newveh_ShelterA_1_233_31': 1548.0, 'newveh_ShelterA_1_225_30': 1554.0, 'init_ShelterA_1_243': 1555.0, 'init_ShelterA_2_265': 1556.0, 'init_ShelterA_1_244': 1557.0, 'init_ShelterA_1_246': 1559.0, 'init_ShelterA_1_247': 1561.0, 'init_ShelterA_1_266': 1564.0, 'init_ShelterA_1_267': 1571.0, 'newveh_ShelterA_1_235_37': 1576.0, 'init_ShelterA_1_268': 1580.0, 'newveh_ShelterA_2_232_29': 1601.0, 'newveh_ShelterA_2_231_28': 1606.0, 'newveh_ShelterA_1_258_39': 1637.0, 'newveh_ShelterA_2_273_83': 1645.0, 'newveh_ShelterA_1_261_41': 1648.0, 'newveh_ShelterA_2_221_32': 1649.0, 'newveh_ShelterA_1_251_38': 1652.0, 'newveh_ShelterA_2_222_33': 1676.0, 'newveh_ShelterA_2_223_34': 1683.0, 'newveh_ShelterA_2_229_36': 1692.0, 'newveh_ShelterA_2_226_35': 1712.0, 'init_ShelterA_1_269': 1714.0, 'init_ShelterA_1_272': 1717.0, 'init_ShelterA_1_274': 1718.0, 'init_ShelterA_1_275': 1721.0, 'newveh_ShelterA_2_271_82': 1727.0, 'init_ShelterA_1_297': 1728.0, 'newveh_ShelterA_2_279_84': 1731.0, 'init_ShelterA_1_299': 1735.0, 'init_ShelterA_1_281': 1739.0, 'init_ShelterA_1_303': 1740.0, 'init_ShelterA_1_307': 1745.0, 'init_ShelterA_1_308': 1751.0, 'init_ShelterA_1_309': 1758.0, 'init_ShelterA_1_311': 1762.0, 'newveh_ShelterA_2_263_40': 1765.0, 'init_ShelterA_1_286': 1767.0, 'newveh_ShelterA_1_278_53': 1767.0, 'init_ShelterA_1_288': 1769.0, 'init_ShelterA_1_289': 1771.0, 'newveh_ShelterA_2_250_42': 1779.0, 'init_ShelterA_1_291': 1781.0, 'newveh_ShelterA_2_262_49': 1790.0, 'newveh_ShelterA_2_257_48': 1797.0, 'newveh_ShelterA_2_256_47': 1805.0, 'newveh_ShelterA_2_255_46': 1810.0, 'newveh_ShelterA_1_287_59': 1813.0, 'newveh_ShelterA_2_254_45': 1818.0, 'newveh_ShelterA_1_285_58': 1821.0, 'newveh_ShelterA_2_253_44': 1823.0, 'newveh_ShelterA_1_290_60': 1827.0, 'newveh_ShelterA_2_252_43': 1827.0, 'init_ShelterA_1_324': 1833.0, 'init_ShelterA_1_325': 1839.0, 'newveh_ShelterA_2_323_98': 1841.0, 'init_ShelterA_1_304': 1843.0, 'init_ShelterA_1_305': 1845.0, 'init_ShelterA_1_326': 1846.0, 'init_ShelterA_1_329': 1853.0, 'newveh_ShelterA_2_276_50': 1858.0, 'init_ShelterA_1_312': 1860.0, 'init_ShelterA_1_334': 1861.0, 'init_ShelterA_1_335': 1870.0, 'newveh_ShelterA_2_280_52': 1873.0, 'init_ShelterA_1_337': 1877.0, 'newveh_ShelterA_2_277_51': 1882.0, 'init_ShelterA_1_338': 1883.0, 'newveh_ShelterA_2_282_55': 1887.0, 'init_ShelterA_1_339': 1888.0, 'newveh_ShelterA_2_270_54': 1891.0, 'init_ShelterA_1_343': 1892.0, 'newveh_ShelterA_2_336_107': 1913.0, 'newveh_ShelterA_2_330_106': 1920.0, 'newveh_ShelterA_1_310_71': 1925.0, 'newveh_ShelterA_2_328_105': 1926.0, 'init_ShelterA_1_345': 1934.0, 'newveh_ShelterA_2_283_56': 1936.0, 'init_ShelterA_1_347': 1941.0, 'newveh_ShelterA_2_284_57': 1941.0, 'init_ShelterA_1_327': 1944.0, 'init_ShelterA_1_349': 1946.0, 'newveh_ShelterA_2_292_61': 1950.0, 'init_ShelterA_1_353': 1953.0, 'newveh_ShelterA_2_342_108': 1955.0, 'init_ShelterA_1_344': 1957.0, 'init_ShelterA_1_355': 1958.0, 'init_ShelterA_1_357': 1962.0, 'newveh_ShelterA_2_359_110': 1966.0, 'init_ShelterA_1_358': 1991.0, 'newveh_ShelterA_2_295_64': 1999.0, 'init_ShelterA_1_360': 2004.0, 'init_ShelterA_1_362': 2010.0, 'newveh_ShelterA_1_313_72': 2016.0, 'newveh_ShelterA_2_296_65': 2017.0, 'newveh_ShelterA_1_317_73': 2021.0, 'newveh_ShelterA_2_294_63': 2024.0, 'init_ShelterA_1_365': 2027.0, 'newveh_ShelterA_2_293_62': 2030.0, 'init_ShelterA_1_371': 2033.0, 'newveh_ShelterA_2_298_66': 2037.0, 'init_ShelterA_1_372': 2039.0, 'init_ShelterA_1_373': 2044.0, 'newveh_ShelterA_2_300_67': 2044.0, 'init_ShelterA_1_375': 2048.0, 'newveh_ShelterA_2_302_69': 2051.0, 'newveh_ShelterA_2_301_68': 2059.0, 'newveh_ShelterA_2_306_70': 2063.0, 'init_ShelterA_1_354': 2066.0, 'init_ShelterA_1_379': 2098.0, 'newveh_ShelterA_2_376_112': 2102.0, 'init_ShelterA_1_380': 2103.0, 'newveh_ShelterA_2_374_111': 2108.0, 'newveh_ShelterA_2_314_74': 2112.0, 'init_ShelterA_1_390': 2118.0, 'init_ShelterA_1_391': 2123.0, 'newveh_ShelterA_2_315_75': 2126.0, 'newveh_ShelterA_2_316_76': 2131.0, 'newveh_ShelterA_2_318_77': 2152.0, 'newveh_ShelterA_2_319_78': 2161.0, 'newveh_ShelterA_2_322_79': 2166.0, 'newveh_ShelterA_2_320_80': 2172.0, 'newveh_ShelterA_2_321_81': 2177.0, 'init_ShelterA_1_377': 2179.0, 'init_ShelterA_1_378': 2181.0, 'init_ShelterA_1_395': 2183.0, 'init_ShelterA_1_381': 2184.0, 'init_ShelterA_1_382': 2186.0, 'init_ShelterA_1_383': 2188.0, 'init_ShelterA_1_397': 2189.0, 'init_ShelterA_1_385': 2190.0, 'init_ShelterA_1_386': 2193.0, 'init_ShelterA_1_398': 2195.0, 'init_ShelterA_1_399': 2202.0, 'init_ShelterA_1_387': 2203.0, 'init_ShelterA_1_388': 2204.0, 'init_ShelterA_1_389': 2206.0, 'newveh_ShelterA_1_340_85': 2207.0, 'init_ShelterA_1_392': 2208.0, 'newveh_ShelterA_1_350_92': 2211.0, 'init_ShelterA_1_393': 2239.0, 'init_ShelterA_1_394': 2247.0, 'init_ShelterA_1_396': 2249.0, 'newveh_ShelterA_1_364_99': 2271.0, 'newveh_ShelterA_2_331_86': 2286.0, 'newveh_ShelterA_2_341_89': 2298.0, 'newveh_ShelterA_2_348_91': 2304.0, 'newveh_ShelterA_2_346_90': 2308.0, 'newveh_ShelterA_2_333_88': 2317.0, 'newveh_ShelterA_2_332_87': 2324.0, 'newveh_ShelterA_2_356_95': 2332.0, 'newveh_ShelterA_2_351_93': 2336.0, 'newveh_ShelterA_2_352_94': 2341.0, 'newveh_ShelterA_2_361_96': 2386.0, 'newveh_ShelterA_2_366_100': 2393.0, 'newveh_ShelterA_2_363_97': 2399.0, 'newveh_ShelterA_2_370_102': 2405.0, 'newveh_ShelterA_2_369_104': 2412.0, 'newveh_ShelterA_2_368_103': 2420.0, 'newveh_ShelterA_2_384_109': 2424.0, 'newveh_ShelterA_2_367_101': 2428.0}
vehicle_abandant_time_by_pedestrianID_dict:{}
walking_distance_by_pedestrianID_dict:{}
route_change_time_by_vehID_dict:{'init_ShelterA_2_52': 430.0, 'init_ShelterA_2_55': 430.0, 'init_ShelterA_2_66': 430.0, 'init_ShelterA_2_69': 430.0, 'init_ShelterA_1_61': 460.0, 'init_ShelterA_1_63': 460.0, 'init_ShelterA_1_64': 460.0, 'init_ShelterA_2_68': 460.0, 'init_ShelterA_1_59': 470.0, 'init_ShelterA_1_60': 470.0, 'init_ShelterA_1_65': 470.0, 'init_ShelterA_1_67': 470.0, 'init_ShelterA_1_70': 470.0, 'init_ShelterA_1_71': 490.0, 'init_ShelterA_1_72': 490.0, 'init_ShelterA_1_73': 500.0, 'init_ShelterA_1_74': 500.0, 'init_ShelterA_1_76': 500.0, 'init_ShelterA_1_77': 510.0, 'init_ShelterA_1_78': 510.0, 'init_ShelterA_1_82': 510.0, 'init_ShelterA_1_83': 510.0, 'init_ShelterA_1_79': 520.0, 'init_ShelterA_1_86': 550.0, 'init_ShelterA_1_89': 570.0, 'init_ShelterA_1_87': 580.0, 'init_ShelterA_1_90': 580.0, 'init_ShelterA_1_91': 580.0, 'init_ShelterA_1_85': 590.0, 'init_ShelterA_2_92': 590.0, 'init_ShelterA_1_95': 600.0, 'init_ShelterA_1_96': 600.0, 'init_ShelterA_1_98': 600.0, 'init_ShelterA_2_101': 600.0, 'init_ShelterA_2_93': 600.0, 'init_ShelterA_1_100': 610.0, 'init_ShelterA_1_105': 610.0, 'init_ShelterA_1_106': 610.0, 'init_ShelterA_2_114': 690.0, 'init_ShelterA_1_110': 700.0, 'init_ShelterA_1_111': 700.0, 'init_ShelterA_1_112': 700.0, 'init_ShelterA_1_113': 700.0, 'init_ShelterA_1_118': 700.0, 'init_ShelterA_1_119': 700.0, 'init_ShelterA_1_120': 700.0, 'init_ShelterA_1_123': 700.0, 'init_ShelterA_1_124': 700.0, 'init_ShelterA_2_122': 700.0, 'init_ShelterA_1_115': 730.0, 'init_ShelterA_1_117': 730.0, 'init_ShelterA_1_116': 740.0, 'init_ShelterA_1_125': 750.0, 'init_ShelterA_1_126': 750.0, 'init_ShelterA_1_128': 750.0, 'init_ShelterA_1_129': 750.0, 'init_ShelterA_1_127': 760.0, 'init_ShelterA_1_130': 760.0, 'init_ShelterA_2_131': 760.0, 'init_ShelterA_1_132': 770.0, 'init_ShelterA_1_134': 770.0, 'init_ShelterA_1_135': 770.0, 'init_ShelterA_1_136': 770.0, 'init_ShelterA_1_137': 770.0, 'init_ShelterA_1_138': 770.0, 'init_ShelterA_1_133': 780.0, 'init_ShelterA_1_139': 780.0, 'init_ShelterA_1_141': 780.0, 'init_ShelterA_1_142': 780.0, 'init_ShelterA_1_185': 810.0, 'init_ShelterA_1_186': 810.0, 'init_ShelterA_1_187': 810.0, 'init_ShelterA_1_188': 810.0, 'init_ShelterA_1_189': 810.0, 'init_ShelterA_1_190': 810.0, 'init_ShelterA_1_191': 810.0, 'init_ShelterA_1_192': 810.0, 'init_ShelterA_1_193': 810.0, 'init_ShelterA_1_194': 810.0, 'init_ShelterA_1_195': 810.0, 'init_ShelterA_1_196': 810.0, 'init_ShelterA_1_197': 810.0, 'init_ShelterA_1_198': 810.0, 'init_ShelterA_1_199': 810.0, 'init_ShelterA_1_200': 810.0, 'init_ShelterA_1_201': 810.0, 'init_ShelterA_1_202': 810.0, 'init_ShelterA_1_203': 810.0, 'init_ShelterA_1_204': 810.0, 'init_ShelterA_1_205': 810.0, 'init_ShelterA_1_206': 810.0, 'init_ShelterA_1_207': 810.0, 'init_ShelterA_1_209': 810.0, 'init_ShelterA_1_211': 810.0, 'init_ShelterA_1_212': 810.0, 'init_ShelterA_2_210': 810.0, 'init_ShelterA_1_143': 830.0, 'init_ShelterA_1_146': 840.0, 'init_ShelterA_1_148': 840.0, 'init_ShelterA_1_144': 850.0, 'init_ShelterA_1_150': 850.0, 'init_ShelterA_1_151': 850.0, 'init_ShelterA_1_152': 850.0, 'init_ShelterA_1_153': 850.0, 'init_ShelterA_1_154': 850.0, 'init_ShelterA_2_155': 850.0, 'init_ShelterA_1_156': 860.0, 'init_ShelterA_1_158': 860.0, 'init_ShelterA_1_159': 860.0, 'init_ShelterA_1_160': 860.0, 'init_ShelterA_1_157': 870.0, 'init_ShelterA_1_161': 910.0, 'init_ShelterA_1_162': 910.0, 'init_ShelterA_1_163': 920.0, 'init_ShelterA_1_168': 930.0, 'init_ShelterA_1_164': 940.0, 'init_ShelterA_1_165': 940.0, 'init_ShelterA_1_167': 940.0, 'init_ShelterA_1_169': 940.0, 'init_ShelterA_1_170': 940.0, 'init_ShelterA_1_171': 940.0, 'init_ShelterA_1_173': 940.0, 'init_ShelterA_1_174': 940.0, 'init_ShelterA_1_175': 940.0, 'init_ShelterA_1_176': 940.0, 'init_ShelterA_1_177': 940.0, 'init_ShelterA_1_166': 950.0, 'init_ShelterA_1_172': 950.0, 'init_ShelterA_2_227': 960.0, 'init_ShelterA_1_231': 970.0, 'init_ShelterA_1_232': 970.0, 'init_ShelterA_2_225': 970.0, 'init_ShelterA_2_233': 970.0, 'init_ShelterA_1_221': 980.0, 'init_ShelterA_1_222': 980.0, 'init_ShelterA_1_223': 980.0, 'init_ShelterA_1_226': 980.0, 'init_ShelterA_1_229': 980.0, 'init_ShelterA_2_235': 980.0, 'init_ShelterA_2_241': 1000.0, 'init_ShelterA_2_181': 1020.0, 'init_ShelterA_2_251': 1050.0, 'init_ShelterA_2_258': 1050.0, 'init_ShelterA_1_263': 1060.0, 'init_ShelterA_2_261': 1060.0, 'init_ShelterA_1_250': 1070.0, 'init_ShelterA_1_252': 1070.0, 'init_ShelterA_1_253': 1070.0, 'init_ShelterA_1_254': 1070.0, 'init_ShelterA_1_255': 1070.0, 'init_ShelterA_1_256': 1070.0, 'init_ShelterA_1_257': 1070.0, 'init_ShelterA_1_262': 1070.0, 'init_ShelterA_1_217': 1090.0, 'init_ShelterA_1_208': 1100.0, 'init_ShelterA_1_183': 1110.0, 'init_ShelterA_1_213': 1110.0, 'init_ShelterA_1_214': 1110.0, 'init_ShelterA_1_215': 1110.0, 'init_ShelterA_1_182': 1120.0, 'init_ShelterA_1_276': 1140.0, 'init_ShelterA_1_277': 1150.0, 'init_ShelterA_1_280': 1150.0, 'init_ShelterA_2_278': 1150.0, 'init_ShelterA_1_270': 1160.0, 'init_ShelterA_1_282': 1160.0, 'init_ShelterA_1_283': 1160.0, 'init_ShelterA_1_284': 1160.0, 'init_ShelterA_2_285': 1170.0, 'init_ShelterA_2_287': 1170.0, 'init_ShelterA_2_290': 1180.0, 'init_ShelterA_1_240': 1220.0, 'init_ShelterA_1_230': 1230.0, 'init_ShelterA_1_292': 1230.0, 'init_ShelterA_1_293': 1230.0, 'init_ShelterA_1_294': 1230.0, 'init_ShelterA_1_295': 1230.0, 'init_ShelterA_1_296': 1230.0, 'init_ShelterA_1_298': 1230.0, 'init_ShelterA_1_300': 1230.0, 'init_ShelterA_1_301': 1230.0, 'init_ShelterA_1_302': 1230.0, 'init_ShelterA_1_306': 1240.0, 'init_ShelterA_2_310': 1250.0, 'init_ShelterA_2_265': 1270.0, 'init_ShelterA_1_238': 1280.0, 'init_ShelterA_1_239': 1280.0, 'init_ShelterA_1_224': 1290.0, 'init_ShelterA_1_244': 1290.0, 'init_ShelterA_1_246': 1290.0, 'init_ShelterA_1_247': 1290.0, 'init_ShelterA_2_313': 1290.0, 'init_ShelterA_2_317': 1290.0, 'init_ShelterA_1_220': 1300.0, 'init_ShelterA_1_314': 1300.0, 'init_ShelterA_1_315': 1300.0, 'init_ShelterA_1_316': 1300.0, 'init_ShelterA_1_318': 1300.0, 'init_ShelterA_1_319': 1300.0, 'init_ShelterA_1_322': 1310.0, 'init_ShelterA_1_320': 1330.0, 'init_ShelterA_1_321': 1330.0, 'init_ShelterA_1_271': 1350.0, 'init_ShelterA_1_273': 1350.0, 'init_ShelterA_1_243': 1360.0, 'init_ShelterA_1_274': 1360.0, 'init_ShelterA_1_279': 1360.0, 'init_ShelterA_1_281': 1360.0, 'init_ShelterA_1_272': 1370.0, 'init_ShelterA_1_275': 1370.0, 'init_ShelterA_1_269': 1390.0, 'init_ShelterA_1_304': 1400.0, 'init_ShelterA_1_305': 1400.0, 'init_ShelterA_2_340': 1400.0, 'init_ShelterA_1_331': 1410.0, 'init_ShelterA_1_332': 1410.0, 'init_ShelterA_1_333': 1410.0, 'init_ShelterA_1_341': 1410.0, 'init_ShelterA_1_288': 1420.0, 'init_ShelterA_1_289': 1440.0, 'init_ShelterA_1_346': 1480.0, 'init_ShelterA_1_348': 1480.0, 'init_ShelterA_2_350': 1480.0, 'init_ShelterA_1_351': 1490.0, 'init_ShelterA_1_352': 1500.0, 'init_ShelterA_1_356': 1500.0, 'init_ShelterA_1_361': 1500.0, 'init_ShelterA_1_363': 1500.0, 'init_ShelterA_1_323': 1530.0, 'init_ShelterA_2_364': 1530.0, 'init_ShelterA_1_286': 1540.0, 'init_ShelterA_1_291': 1540.0, 'init_ShelterA_1_344': 1570.0, 'init_ShelterA_1_366': 1570.0, 'init_ShelterA_1_367': 1570.0, 'init_ShelterA_1_370': 1570.0, 'init_ShelterA_1_368': 1580.0, 'init_ShelterA_1_369': 1580.0, 'init_ShelterA_1_327': 1600.0, 'init_ShelterA_1_328': 1600.0, 'init_ShelterA_1_330': 1600.0, 'init_ShelterA_1_336': 1600.0, 'init_ShelterA_1_342': 1610.0, 'init_ShelterA_1_312': 1630.0, 'init_ShelterA_1_354': 1650.0, 'init_ShelterA_1_384': 1660.0, 'init_ShelterA_1_359': 1700.0, 'init_ShelterA_1_374': 1790.0, 'init_ShelterA_1_376': 1790.0, 'init_ShelterA_1_377': 1870.0, 'init_ShelterA_1_382': 1990.0, 'init_ShelterA_1_383': 1990.0, 'init_ShelterA_1_386': 1990.0, 'init_ShelterA_1_387': 1990.0, 'init_ShelterA_1_388': 1990.0, 'init_ShelterA_1_389': 1990.0, 'init_ShelterA_1_381': 2000.0, 'init_ShelterA_1_385': 2000.0, 'init_ShelterA_1_393': 2000.0, 'init_ShelterA_1_394': 2000.0, 'init_ShelterA_1_396': 2000.0, 'init_ShelterA_1_378': 2010.0, 'init_ShelterA_1_392': 2010.0}
pedestrian_count:0
route_changed_vehicle_count:263
route_change_event_count:263
rate_vehicle_abandonment:0.00%
wrong_way_driving_count:0
vehicle_abandonment_count:0
normalcy_bias_route_change_count:163
majority_bias_route_change_count:100
lane_changed_vehicle_count:0
info_obtained_lanechange_count:0
elapsed_time_lanechange_count:0
majority_bias_lanechange_count:0

=== Job Result ===
end=2026-07-13T02:25:46+0900
elapsed_seconds=426
exit_code=0
status=SUCCESS
