=== Job Info ===
job_name=va_s5_e1.0_v1.0_r4
host=schubert
pid=115256
scenario=5
early_rate=1.0
v2v_rate=1.0
run_id=4
config=/home/katagi/vehicle-assistant-system/scenarios/JIP/configs/config_scenario_5.toml
output_dir=/home/katagi/vehicle-assistant-system/schubert_logs/va_s5_e1.0_v1.0_r4
start=2026-07-13T01:31:12+0900
python_version=Python 3.12.3
sumo_version=Eclipse SUMO sumo Version v1_23_1+0435-630512a

=== Command ===
cd /home/katagi/vehicle-assistant-system/schubert_logs/va_s5_e1.0_v1.0_r4
PYTHONPATH=/home/katagi/vehicle-assistant-system:/home/katagi/tmp/sumo/tools:/home/katagi/local/sumo/tools:/home/katagi/tmp/sumo/tools:/home/katagi/local/sumo/tools:/home/katagi/tmp/sumo/tools:/home/katagi/local/sumo/tools: python3 -W ignore::UserWarning -m scenarios.JIP.1-1-4.simulation.runner_simulator --nogui /home/katagi/vehicle-assistant-system/scenarios/JIP/configs/config_scenario_5.toml 1.0 1.0
simulation_pid=115276
Step #0.00 (0ms ?*RT. ?UPS, TraCI: 335ms, vehicles TOT 1 ACT 1 BUF 0)                     Step #100.00 (1ms ~= 1000.00*RT, ~26000.00UPS, TraCI: 17ms, vehicles TOT 26 ACT 26 BUF 0) Step #200.00 (0ms ?*RT. ?UPS, TraCI: 37ms, vehicles TOT 51 ACT 51 BUF 0)                  Step #300.00 (1ms ~= 1000.00*RT, ~77000.00UPS, TraCI: 57ms, vehicles TOT 77 ACT 77 BUF 0) Step #400.00 (1ms ~= 1000.00*RT, ~104000.00UPS, TraCI: 631ms, vehicles TOT 104 ACT 104 BUFStep #500.00 (1ms ~= 1000.00*RT, ~131000.00UPS, TraCI: 2476ms, vehicles TOT 131 ACT 131 BUStep #600.00 (1ms ~= 1000.00*RT, ~158000.00UPS, TraCI: 2604ms, vehicles TOT 158 ACT 158 BUStep #700.00 (0ms ?*RT. ?UPS, TraCI: 3649ms, vehicles TOT 191 ACT 177 BUF 9)              Step #800.00 (1ms ~= 1000.00*RT, ~200000.00UPS, TraCI: 4140ms, vehicles TOT 226 ACT 200 BUStep #900.00 (0ms ?*RT. ?UPS, TraCI: 3591ms, vehicles TOT 244 ACT 208 BUF 36)             Step #1000.00 (1ms ~= 1000.00*RT, ~243000.00UPS, TraCI: 3807ms, vehicles TOT 286 ACT 243 BStep #1100.00 (1ms ~= 1000.00*RT, ~258000.00UPS, TraCI: 3161ms, vehicles TOT 317 ACT 258 BStep #1200.00 (1ms ~= 1000.00*RT, ~281000.00UPS, TraCI: 3508ms, vehicles TOT 348 ACT 281 BStep #1300.00 (1ms ~= 1000.00*RT, ~302000.00UPS, TraCI: 3892ms, vehicles TOT 370 ACT 302 BStep #1400.00 (1ms ~= 1000.00*RT, ~319000.00UPS, TraCI: 3822ms, vehicles TOT 396 ACT 319 BStep #1500.00 (1ms ~= 1000.00*RT, ~346000.00UPS, TraCI: 4588ms, vehicles TOT 427 ACT 346 BStep #1600.00 (1ms ~= 1000.00*RT, ~361000.00UPS, TraCI: 4038ms, vehicles TOT 457 ACT 361 BStep #1700.00 (1ms ~= 1000.00*RT, ~387000.00UPS, TraCI: 4261ms, vehicles TOT 485 ACT 387 BStep #1800.00 (0ms ?*RT. ?UPS, TraCI: 4946ms, vehicles TOT 498 ACT 400 BUF 0)             Step #1900.00 (1ms ~= 1000.00*RT, ~400000.00UPS, TraCI: 4860ms, vehicles TOT 501 ACT 400 BStep #2000.00 (0ms ?*RT. ?UPS, TraCI: 4339ms, vehicles TOT 501 ACT 400 BUF 0)             Step #2100.00 (0ms ?*RT. ?UPS, TraCI: 3680ms, vehicles TOT 501 ACT 400 BUF 0)             Step #2200.00 (0ms ?*RT. ?UPS, TraCI: 3236ms, vehicles TOT 501 ACT 400 BUF 0)             Step #2300.00 (1ms ~= 1000.00*RT, ~400000.00UPS, TraCI: 2537ms, vehicles TOT 501 ACT 400 BStep #2400.00 (1ms ~= 1000.00*RT, ~400000.00UPS, TraCI: 2065ms, vehicles TOT 501 ACT 400 BStep #2500.00 (1ms ~= 1000.00*RT, ~400000.00UPS, TraCI: 1518ms, vehicles TOT 501 ACT 400 BStep #2600.00 (0ms ?*RT. ?UPS, TraCI: 1078ms, vehicles TOT 501 ACT 400 BUF 0)             Step #2700.00 (0ms ?*RT. ?UPS, TraCI: 607ms, vehicles TOT 501 ACT 400 BUF 0)              Step #2800.00 (0ms ?*RT. ?UPS, TraCI: 81ms, vehicles TOT 501 ACT 400 BUF 0)               Step #2900.00 (0ms ?*RT. ?UPS, TraCI: 77ms, vehicles TOT 501 ACT 400 BUF 0)               Step #3000.00 (1ms ~= 1000.00*RT, ~400000.00UPS, TraCI: 77ms, vehicles TOT 501 ACT 400 BUF
 Retrying in 1 seconds
出現数: {'A1': 366, 'A2': 34}
割合:
  Total: 400
  A1: 366 (91.50%)
  A2: 34 (8.50%)
  B1: 0 (0.00%)
  B2: 0 (0.00%)
mean elapsed_time: 770.4925
OK all vehs arrived 
平均渋滞継続時間: 702.39秒
OK all vehicle abandonment were detected
311
89
===== Simlation Result Summary =====
avg_congestion_duration: 702.39 
arrival_time_by_vehID_dict:{'init_ShelterA_1_0': 208.0, 'init_ShelterA_1_1': 243.0, 'init_ShelterA_1_2': 284.0, 'init_ShelterA_1_3': 289.0, 'init_ShelterA_1_4': 296.0, 'init_ShelterA_1_5': 302.0, 'init_ShelterA_1_6': 308.0, 'init_ShelterA_1_7': 315.0, 'init_ShelterA_1_8': 322.0, 'init_ShelterA_1_10': 330.0, 'init_ShelterA_1_11': 339.0, 'init_ShelterA_1_12': 348.0, 'init_ShelterA_1_13': 357.0, 'init_ShelterA_1_14': 366.0, 'init_ShelterA_1_15': 374.0, 'init_ShelterA_1_16': 381.0, 'init_ShelterA_1_17': 389.0, 'init_ShelterA_2_9': 394.0, 'init_ShelterA_1_18': 398.0, 'init_ShelterA_1_19': 407.0, 'init_ShelterA_1_20': 416.0, 'init_ShelterA_1_21': 426.0, 'init_ShelterA_1_22': 436.0, 'init_ShelterA_1_23': 445.0, 'init_ShelterA_1_24': 455.0, 'init_ShelterA_1_25': 465.0, 'init_ShelterA_1_26': 474.0, 'init_ShelterA_1_27': 484.0, 'init_ShelterA_1_28': 494.0, 'init_ShelterA_1_29': 504.0, 'init_ShelterA_1_30': 513.0, 'init_ShelterA_1_31': 523.0, 'init_ShelterA_1_32': 533.0, 'init_ShelterA_1_33': 542.0, 'init_ShelterA_1_34': 552.0, 'init_ShelterA_1_35': 561.0, 'init_ShelterA_1_36': 571.0, 'init_ShelterA_2_40': 573.0, 'init_ShelterA_1_37': 580.0, 'init_ShelterA_2_45': 586.0, 'init_ShelterA_1_38': 590.0, 'init_ShelterA_1_39': 600.0, 'init_ShelterA_2_50': 605.0, 'init_ShelterA_1_41': 609.0, 'init_ShelterA_1_42': 619.0, 'init_ShelterA_1_43': 628.0, 'init_ShelterA_1_44': 638.0, 'init_ShelterA_1_46': 647.0, 'init_ShelterA_1_47': 657.0, 'init_ShelterA_1_48': 666.0, 'init_ShelterA_1_49': 675.0, 'init_ShelterA_1_51': 685.0, 'init_ShelterA_1_52': 694.0, 'init_ShelterA_1_53': 703.0, 'init_ShelterA_1_54': 713.0, 'init_ShelterA_1_55': 722.0, 'init_ShelterA_1_56': 731.0, 'init_ShelterA_1_57': 740.0, 'init_ShelterA_1_58': 750.0, 'init_ShelterA_1_59': 759.0, 'init_ShelterA_1_60': 768.0, 'init_ShelterA_1_61': 777.0, 'init_ShelterA_1_62': 786.0, 'init_ShelterA_1_63': 795.0, 'init_ShelterA_1_64': 804.0, 'init_ShelterA_2_65': 806.0, 'init_ShelterA_1_66': 816.0, 'init_ShelterA_1_67': 825.0, 'init_ShelterA_1_68': 834.0, 'init_ShelterA_1_69': 843.0, 'init_ShelterA_1_70': 852.0, 'init_ShelterA_1_71': 861.0, 'init_ShelterA_1_72': 870.0, 'init_ShelterA_1_73': 879.0, 'init_ShelterA_1_74': 888.0, 'init_ShelterA_2_75': 890.0, 'init_ShelterA_1_76': 900.0, 'init_ShelterA_1_77': 909.0, 'init_ShelterA_1_78': 919.0, 'init_ShelterA_1_79': 928.0, 'init_ShelterA_1_80': 937.0, 'init_ShelterA_1_81': 946.0, 'init_ShelterA_1_82': 955.0, 'init_ShelterA_1_121': 957.0, 'init_ShelterA_1_83': 964.0, 'init_ShelterA_1_84': 973.0, 'init_ShelterA_1_125': 982.0, 'init_ShelterA_1_85': 982.0, 'init_ShelterA_1_127': 987.0, 'init_ShelterA_1_86': 991.0, 'init_ShelterA_1_87': 1000.0, 'init_ShelterA_1_88': 1009.0, 'init_ShelterA_1_89': 1018.0, 'init_ShelterA_1_90': 1027.0, 'init_ShelterA_1_91': 1036.0, 'init_ShelterA_1_92': 1045.0, 'newveh_ShelterA_2_146_20': 1048.0, 'init_ShelterA_1_93': 1054.0, 'init_ShelterA_1_94': 1063.0, 'init_ShelterA_1_95': 1072.0, 'init_ShelterA_1_96': 1081.0, 'init_ShelterA_1_140': 1086.0, 'init_ShelterA_1_142': 1088.0, 'init_ShelterA_1_97': 1090.0, 'init_ShelterA_1_143': 1093.0, 'init_ShelterA_1_144': 1095.0, 'init_ShelterA_1_98': 1099.0, 'init_ShelterA_1_145': 1101.0, 'init_ShelterA_1_99': 1107.0, 'init_ShelterA_1_100': 1116.0, 'init_ShelterA_1_151': 1123.0, 'init_ShelterA_1_101': 1125.0, 'init_ShelterA_1_102': 1134.0, 'init_ShelterA_1_103': 1143.0, 'init_ShelterA_1_104': 1152.0, 'init_ShelterA_1_105': 1160.0, 'init_ShelterA_1_106': 1169.0, 'init_ShelterA_1_107': 1178.0, 'init_ShelterA_1_108': 1187.0, 'init_ShelterA_1_109': 1195.0, 'init_ShelterA_1_110': 1204.0, 'init_ShelterA_1_111': 1213.0, 'newveh_ShelterA_2_166_5': 1214.0, 'newveh_ShelterA_2_161_4': 1220.0, 'init_ShelterA_1_112': 1222.0, 'newveh_ShelterA_2_159_3': 1224.0, 'init_ShelterA_1_113': 1230.0, 'newveh_ShelterA_2_156_2': 1235.0, 'init_ShelterA_1_114': 1239.0, 'newveh_ShelterA_2_154_1': 1243.0, 'init_ShelterA_1_115': 1248.0, 'newveh_ShelterA_2_153_0': 1248.0, 'init_ShelterA_1_116': 1256.0, 'newveh_ShelterA_2_168_7': 1256.0, 'newveh_ShelterA_2_167_6': 1261.0, 'init_ShelterA_1_117': 1265.0, 'newveh_ShelterA_2_185_36': 1265.0, 'init_ShelterA_1_118': 1274.0, 'init_ShelterA_1_119': 1282.0, 'newveh_ShelterA_2_163_12': 1285.0, 'init_ShelterA_1_120': 1291.0, 'newveh_ShelterA_2_169_13': 1294.0, 'init_ShelterA_1_181': 1297.0, 'init_ShelterA_1_183': 1299.0, 'init_ShelterA_1_122': 1300.0, 'init_ShelterA_1_123': 1308.0, 'newveh_ShelterA_2_172_14': 1309.0, 'init_ShelterA_1_124': 1317.0, 'newveh_ShelterA_2_173_15': 1324.0, 'init_ShelterA_1_126': 1326.0, 'newveh_ShelterA_2_177_18': 1328.0, 'init_ShelterA_1_128': 1334.0, 'newveh_ShelterA_2_176_17': 1338.0, 'init_ShelterA_1_129': 1343.0, 'newveh_ShelterA_2_174_16': 1343.0, 'init_ShelterA_1_130': 1352.0, 'init_ShelterA_1_131': 1360.0, 'init_ShelterA_1_190': 1360.0, 'init_ShelterA_1_132': 1369.0, 'init_ShelterA_1_133': 1377.0, 'init_ShelterA_1_134': 1386.0, 'init_ShelterA_1_135': 1394.0, 'init_ShelterA_1_136': 1403.0, 'init_ShelterA_1_137': 1411.0, 'init_ShelterA_2_138': 1414.0, 'newveh_ShelterA_2_196_21': 1416.0, 'init_ShelterA_1_214': 1418.0, 'init_ShelterA_1_139': 1423.0, 'newveh_ShelterA_2_203_25': 1423.0, 'init_ShelterA_1_141': 1432.0, 'init_ShelterA_1_147': 1440.0, 'init_ShelterA_1_148': 1449.0, 'init_ShelterA_1_149': 1458.0, 'newveh_ShelterA_2_228_65': 1460.0, 'init_ShelterA_1_150': 1467.0, 'newveh_ShelterA_2_227_64': 1469.0, 'newveh_ShelterA_2_202_24': 1474.0, 'init_ShelterA_1_157': 1476.0, 'newveh_ShelterA_2_201_23': 1478.0, 'init_ShelterA_1_160': 1485.0, 'newveh_ShelterA_2_197_22': 1492.0, 'init_ShelterA_1_162': 1493.0, 'newveh_ShelterA_2_189_26': 1500.0, 'init_ShelterA_1_165': 1502.0, 'newveh_ShelterA_2_207_30': 1505.0, 'newveh_ShelterA_2_200_29': 1510.0, 'newveh_ShelterA_1_152_8': 1511.0, 'newveh_ShelterA_2_195_28': 1518.0, 'newveh_ShelterA_1_164_11': 1519.0, 'newveh_ShelterA_2_192_27': 1524.0, 'init_ShelterA_1_223': 1527.0, 'newveh_ShelterA_1_158_10': 1528.0, 'init_ShelterA_1_224': 1529.0, 'newveh_ShelterA_1_155_9': 1537.0, 'init_ShelterA_1_170': 1545.0, 'newveh_ShelterA_2_257_67': 1552.0, 'init_ShelterA_1_171': 1554.0, 'init_ShelterA_1_178': 1563.0, 'newveh_ShelterA_2_215_34': 1567.0, 'init_ShelterA_1_179': 1571.0, 'newveh_ShelterA_2_216_35': 1577.0, 'init_ShelterA_1_180': 1579.0, 'init_ShelterA_1_239': 1579.0, 'init_ShelterA_1_241': 1581.0, 'init_ShelterA_2_182': 1582.0, 'init_ShelterA_1_184': 1591.0, 'init_ShelterA_1_242': 1596.0, 'init_ShelterA_1_244': 1598.0, 'init_ShelterA_1_186': 1600.0, 'init_ShelterA_2_187': 1602.0, 'init_ShelterA_1_188': 1612.0, 'newveh_ShelterA_1_175_19': 1621.0, 'init_ShelterA_1_191': 1630.0, 'init_ShelterA_1_193': 1639.0, 'init_ShelterA_1_194': 1648.0, 'init_ShelterA_1_198': 1657.0, 'newveh_ShelterA_2_238_41': 1664.0, 'init_ShelterA_1_199': 1666.0, 'newveh_ShelterA_2_236_40': 1670.0, 'newveh_ShelterA_2_232_39': 1674.0, 'init_ShelterA_1_204': 1675.0, 'init_ShelterA_1_208': 1684.0, 'newveh_ShelterA_2_243_42': 1690.0, 'init_ShelterA_1_209': 1693.0, 'init_ShelterA_1_210': 1701.0, 'init_ShelterA_1_211': 1710.0, 'init_ShelterA_1_212': 1719.0, 'init_ShelterA_1_213': 1728.0, 'newveh_ShelterA_1_206_32': 1737.0, 'newveh_ShelterA_2_253_44': 1738.0, 'newveh_ShelterA_1_205_31': 1746.0, 'newveh_ShelterA_2_264_47': 1749.0, 'init_ShelterA_1_218': 1755.0, 'init_ShelterA_1_219': 1764.0, 'newveh_ShelterA_2_263_46': 1768.0, 'init_ShelterA_1_221': 1772.0, 'newveh_ShelterA_2_262_45': 1777.0, 'init_ShelterA_1_222': 1781.0, 'newveh_ShelterA_2_248_48': 1781.0, 'newveh_ShelterA_2_249_49': 1786.0, 'newveh_ShelterA_1_217_33': 1790.0, 'newveh_ShelterA_1_220_58': 1798.0, 'init_ShelterA_2_225': 1801.0, 'init_ShelterA_1_226': 1810.0, 'newveh_ShelterA_2_250_50': 1812.0, 'init_ShelterA_1_229': 1819.0, 'newveh_ShelterA_2_267_55': 1826.0, 'init_ShelterA_1_230': 1828.0, 'newveh_ShelterA_2_266_54': 1832.0, 'newveh_ShelterA_2_251_51': 1836.0, 'init_ShelterA_1_231': 1837.0, 'init_ShelterA_1_233': 1846.0, 'newveh_ShelterA_2_254_52': 1853.0, 'init_ShelterA_1_237': 1855.0, 'newveh_ShelterA_2_256_53': 1860.0, 'init_ShelterA_1_240': 1864.0, 'newveh_ShelterA_2_268_56': 1866.0, 'init_ShelterA_1_245': 1873.0, 'newveh_ShelterA_2_309_81': 1874.0, 'newveh_ShelterA_2_315_83': 1878.0, 'init_ShelterA_1_246': 1882.0, 'newveh_ShelterA_2_313_82': 1883.0, 'init_ShelterA_1_247': 1891.0, 'init_ShelterA_1_255': 1900.0, 'init_ShelterA_1_258': 1909.0, 'init_ShelterA_1_259': 1917.0, 'init_ShelterA_1_260': 1926.0, 'init_ShelterA_1_261': 1935.0, 'newveh_ShelterA_1_235_38': 1944.0, 'newveh_ShelterA_1_234_37': 1953.0, 'init_ShelterA_1_269': 1962.0, 'init_ShelterA_1_270': 1970.0, 'init_ShelterA_1_271': 1979.0, 'init_ShelterA_1_272': 1988.0, 'init_ShelterA_1_273': 1997.0, 'init_ShelterA_1_274': 2005.0, 'newveh_ShelterA_2_288_63': 2009.0, 'init_ShelterA_1_276': 2014.0, 'init_ShelterA_1_277': 2023.0, 'newveh_ShelterA_2_287_62': 2026.0, 'init_ShelterA_1_279': 2031.0, 'newveh_ShelterA_2_284_61': 2031.0, 'init_ShelterA_1_280': 2040.0, 'newveh_ShelterA_2_278_60': 2041.0, 'init_ShelterA_1_329': 2043.0, 'init_ShelterA_1_281': 2049.0, 'init_ShelterA_1_282': 2057.0, 'init_ShelterA_1_283': 2066.0, 'init_ShelterA_1_338': 2073.0, 'newveh_ShelterA_1_252_43': 2075.0, 'init_ShelterA_1_285': 2084.0, 'init_ShelterA_1_286': 2092.0, 'init_ShelterA_1_290': 2101.0, 'init_ShelterA_1_291': 2110.0, 'newveh_ShelterA_1_292_80': 2118.0, 'newveh_ShelterA_2_399_100': 2118.0, 'newveh_ShelterA_1_265_57': 2127.0, 'newveh_ShelterA_2_392_99': 2128.0, 'newveh_ShelterA_2_388_98': 2132.0, 'init_ShelterA_1_293': 2136.0, 'init_ShelterA_1_294': 2144.0, 'init_ShelterA_1_295': 2153.0, 'init_ShelterA_1_296': 2162.0, 'init_ShelterA_1_297': 2170.0, 'init_ShelterA_1_298': 2179.0, 'init_ShelterA_1_299': 2187.0, 'init_ShelterA_1_300': 2196.0, 'init_ShelterA_1_301': 2204.0, 'init_ShelterA_1_302': 2213.0, 'init_ShelterA_1_304': 2221.0, 'init_ShelterA_1_305': 2230.0, 'init_ShelterA_1_306': 2239.0, 'init_ShelterA_1_308': 2247.0, 'init_ShelterA_1_312': 2256.0, 'init_ShelterA_1_316': 2264.0, 'init_ShelterA_1_317': 2273.0, 'init_ShelterA_1_318': 2281.0, 'init_ShelterA_1_319': 2290.0, 'newveh_ShelterA_2_303_70': 2297.0, 'newveh_ShelterA_1_275_59': 2299.0, 'newveh_ShelterA_2_307_71': 2302.0, 'init_ShelterA_1_320': 2307.0, 'init_ShelterA_1_321': 2316.0, 'newveh_ShelterA_1_289_66': 2324.0, 'init_ShelterA_1_330': 2333.0, 'init_ShelterA_1_331': 2341.0, 'init_ShelterA_1_332': 2350.0, 'init_ShelterA_1_333': 2358.0, 'init_ShelterA_1_334': 2367.0, 'init_ShelterA_1_335': 2375.0, 'init_ShelterA_1_336': 2384.0, 'init_ShelterA_1_337': 2392.0, 'init_ShelterA_1_339': 2400.0, 'init_ShelterA_1_340': 2409.0, 'init_ShelterA_1_341': 2417.0, 'init_ShelterA_2_342': 2420.0, 'init_ShelterA_1_343': 2429.0, 'init_ShelterA_1_344': 2438.0, 'init_ShelterA_1_345': 2446.0, 'newveh_ShelterA_2_324_74': 2449.0, 'init_ShelterA_1_346': 2455.0, 'init_ShelterA_1_347': 2464.0, 'init_ShelterA_1_348': 2473.0, 'newveh_ShelterA_2_322_73': 2475.0, 'init_ShelterA_1_349': 2481.0, 'newveh_ShelterA_2_325_75': 2482.0, 'init_ShelterA_1_350': 2490.0, 'newveh_ShelterA_2_328_79': 2490.0, 'newveh_ShelterA_2_327_78': 2495.0, 'init_ShelterA_1_351': 2499.0, 'newveh_ShelterA_2_323_77': 2500.0, 'init_ShelterA_1_352': 2508.0, 'newveh_ShelterA_2_361_85': 2509.0, 'newveh_ShelterA_2_372_94': 2513.0, 'init_ShelterA_1_353': 2516.0, 'newveh_ShelterA_2_370_93': 2518.0, 'init_ShelterA_1_354': 2525.0, 'init_ShelterA_1_355': 2534.0, 'init_ShelterA_1_356': 2542.0, 'init_ShelterA_1_357': 2551.0, 'newveh_ShelterA_2_368_92': 2554.0, 'init_ShelterA_1_358': 2560.0, 'newveh_ShelterA_2_367_91': 2561.0, 'newveh_ShelterA_2_366_90': 2565.0, 'init_ShelterA_1_359': 2569.0, 'newveh_ShelterA_2_365_89': 2575.0, 'init_ShelterA_1_360': 2577.0, 'newveh_ShelterA_2_364_88': 2584.0, 'newveh_ShelterA_1_314_69': 2586.0, 'newveh_ShelterA_2_363_87': 2591.0, 'init_ShelterA_1_369': 2595.0, 'newveh_ShelterA_2_362_86': 2595.0, 'newveh_ShelterA_2_397_97': 2600.0, 'newveh_ShelterA_1_311_68': 2603.0, 'init_ShelterA_1_373': 2612.0, 'init_ShelterA_1_374': 2621.0, 'init_ShelterA_1_375': 2629.0, 'init_ShelterA_1_376': 2638.0, 'newveh_ShelterA_1_310_72': 2647.0, 'init_ShelterA_1_377': 2655.0, 'init_ShelterA_1_379': 2664.0, 'init_ShelterA_1_380': 2672.0, 'init_ShelterA_1_381': 2681.0, 'init_ShelterA_1_382': 2689.0, 'init_ShelterA_1_383': 2698.0, 'init_ShelterA_1_384': 2707.0, 'init_ShelterA_1_385': 2715.0, 'init_ShelterA_1_386': 2724.0, 'init_ShelterA_1_387': 2732.0, 'init_ShelterA_1_390': 2741.0, 'init_ShelterA_1_391': 2750.0, 'init_ShelterA_1_393': 2758.0, 'init_ShelterA_1_394': 2767.0, 'init_ShelterA_1_395': 2775.0, 'init_ShelterA_1_396': 2784.0, 'init_ShelterA_1_398': 2792.0, 'newveh_ShelterA_1_326_76': 2797.0, 'newveh_ShelterA_1_371_84': 2802.0, 'newveh_ShelterA_1_378_95': 2807.0, 'newveh_ShelterA_1_389_96': 2812.0}
vehicle_abandant_time_by_pedestrianID_dict:{}
walking_distance_by_pedestrianID_dict:{}
route_change_time_by_vehID_dict:{'init_ShelterA_2_65': 430.0, 'init_ShelterA_2_75': 490.0, 'init_ShelterA_1_153': 640.0, 'init_ShelterA_1_154': 640.0, 'init_ShelterA_1_156': 640.0, 'init_ShelterA_1_159': 640.0, 'init_ShelterA_1_161': 640.0, 'init_ShelterA_1_166': 640.0, 'init_ShelterA_1_167': 640.0, 'init_ShelterA_1_168': 640.0, 'init_ShelterA_2_152': 640.0, 'init_ShelterA_2_155': 640.0, 'init_ShelterA_2_158': 640.0, 'init_ShelterA_2_164': 640.0, 'init_ShelterA_1_163': 650.0, 'init_ShelterA_1_169': 670.0, 'init_ShelterA_1_172': 710.0, 'init_ShelterA_1_173': 710.0, 'init_ShelterA_1_174': 710.0, 'init_ShelterA_1_176': 710.0, 'init_ShelterA_1_177': 710.0, 'init_ShelterA_2_175': 710.0, 'init_ShelterA_1_121': 740.0, 'init_ShelterA_1_127': 750.0, 'init_ShelterA_1_125': 760.0, 'init_ShelterA_2_138': 760.0, 'init_ShelterA_1_140': 770.0, 'init_ShelterA_1_145': 770.0, 'init_ShelterA_1_146': 770.0, 'init_ShelterA_1_190': 770.0, 'init_ShelterA_1_196': 800.0, 'init_ShelterA_1_197': 800.0, 'init_ShelterA_1_201': 800.0, 'init_ShelterA_1_202': 800.0, 'init_ShelterA_1_203': 800.0, 'init_ShelterA_1_189': 810.0, 'init_ShelterA_1_192': 810.0, 'init_ShelterA_1_195': 810.0, 'init_ShelterA_1_200': 810.0, 'init_ShelterA_1_207': 810.0, 'init_ShelterA_2_205': 810.0, 'init_ShelterA_2_206': 810.0, 'init_ShelterA_1_214': 840.0, 'init_ShelterA_2_217': 860.0, 'init_ShelterA_1_215': 880.0, 'init_ShelterA_1_216': 880.0, 'init_ShelterA_1_143': 910.0, 'init_ShelterA_1_144': 910.0, 'init_ShelterA_1_142': 920.0, 'init_ShelterA_1_151': 920.0, 'init_ShelterA_2_182': 940.0, 'init_ShelterA_2_187': 940.0, 'init_ShelterA_1_181': 950.0, 'init_ShelterA_1_185': 950.0, 'init_ShelterA_2_234': 970.0, 'init_ShelterA_2_235': 970.0, 'init_ShelterA_1_232': 990.0, 'init_ShelterA_1_236': 990.0, 'init_ShelterA_1_238': 990.0, 'init_ShelterA_1_243': 990.0, 'init_ShelterA_2_252': 1040.0, 'init_ShelterA_1_253': 1050.0, 'init_ShelterA_1_262': 1050.0, 'init_ShelterA_1_263': 1050.0, 'init_ShelterA_1_264': 1050.0, 'init_ShelterA_1_248': 1060.0, 'init_ShelterA_1_249': 1060.0, 'init_ShelterA_1_250': 1060.0, 'init_ShelterA_1_251': 1060.0, 'init_ShelterA_1_254': 1060.0, 'init_ShelterA_1_256': 1060.0, 'init_ShelterA_1_266': 1060.0, 'init_ShelterA_1_267': 1060.0, 'init_ShelterA_1_268': 1060.0, 'init_ShelterA_2_265': 1060.0, 'init_ShelterA_1_183': 1090.0, 'init_ShelterA_2_220': 1100.0, 'init_ShelterA_1_223': 1130.0, 'init_ShelterA_1_224': 1130.0, 'init_ShelterA_2_275': 1150.0, 'init_ShelterA_1_278': 1160.0, 'init_ShelterA_1_284': 1160.0, 'init_ShelterA_1_287': 1160.0, 'init_ShelterA_1_288': 1160.0, 'init_ShelterA_2_225': 1170.0, 'init_ShelterA_1_227': 1180.0, 'init_ShelterA_1_228': 1180.0, 'init_ShelterA_2_289': 1180.0, 'init_ShelterA_1_244': 1210.0, 'init_ShelterA_1_242': 1220.0, 'init_ShelterA_1_239': 1250.0, 'init_ShelterA_1_241': 1250.0, 'init_ShelterA_1_257': 1260.0, 'init_ShelterA_2_311': 1320.0, 'init_ShelterA_2_314': 1320.0, 'init_ShelterA_1_303': 1330.0, 'init_ShelterA_1_307': 1330.0, 'init_ShelterA_2_310': 1330.0, 'init_ShelterA_1_322': 1400.0, 'init_ShelterA_1_324': 1400.0, 'init_ShelterA_1_325': 1400.0, 'init_ShelterA_2_326': 1400.0, 'init_ShelterA_1_323': 1410.0, 'init_ShelterA_1_327': 1410.0, 'init_ShelterA_1_328': 1410.0, 'init_ShelterA_2_292': 1440.0, 'init_ShelterA_1_309': 1530.0, 'init_ShelterA_1_313': 1530.0, 'init_ShelterA_1_315': 1530.0, 'init_ShelterA_2_371': 1550.0, 'init_ShelterA_1_329': 1560.0, 'init_ShelterA_1_361': 1560.0, 'init_ShelterA_1_362': 1560.0, 'init_ShelterA_1_363': 1560.0, 'init_ShelterA_1_364': 1560.0, 'init_ShelterA_1_365': 1560.0, 'init_ShelterA_1_366': 1560.0, 'init_ShelterA_1_367': 1560.0, 'init_ShelterA_1_368': 1560.0, 'init_ShelterA_1_370': 1560.0, 'init_ShelterA_1_372': 1560.0, 'init_ShelterA_2_378': 1600.0, 'init_ShelterA_2_389': 1660.0, 'init_ShelterA_1_397': 1670.0, 'init_ShelterA_2_342': 1680.0, 'init_ShelterA_1_338': 1810.0, 'init_ShelterA_1_388': 1870.0, 'init_ShelterA_1_392': 1870.0, 'init_ShelterA_1_399': 1870.0}
pedestrian_count:0
route_changed_vehicle_count:129
route_change_event_count:129
rate_vehicle_abandonment:0.00%
wrong_way_driving_count:0
vehicle_abandonment_count:0
normalcy_bias_route_change_count:107
majority_bias_route_change_count:22
lane_changed_vehicle_count:0
info_obtained_lanechange_count:0
elapsed_time_lanechange_count:0
majority_bias_lanechange_count:0

=== Job Result ===
end=2026-07-13T01:47:22+0900
elapsed_seconds=970
exit_code=0
status=SUCCESS
