=== Job Info ===
job_name=va_s13_e1.0_v1.0_r23
host=schubert
pid=139603
scenario=13
early_rate=1.0
v2v_rate=1.0
run_id=23
config=/home/katagi/vehicle-assistant-system/scenarios/JIP/configs/config_scenario_13.toml
output_dir=/home/katagi/vehicle-assistant-system/schubert_logs/va_s13_e1.0_v1.0_r23
start=2026-07-13T03:29:22+0900
python_version=Python 3.12.3
sumo_version=Eclipse SUMO sumo Version v1_23_1+0435-630512a

=== Command ===
cd /home/katagi/vehicle-assistant-system/schubert_logs/va_s13_e1.0_v1.0_r23
PYTHONPATH=/home/katagi/vehicle-assistant-system:/home/katagi/tmp/sumo/tools:/home/katagi/local/sumo/tools:/home/katagi/tmp/sumo/tools:/home/katagi/local/sumo/tools:/home/katagi/tmp/sumo/tools:/home/katagi/local/sumo/tools: python3 -W ignore::UserWarning -m scenarios.JIP.1-1-4.simulation.runner_simulator --nogui /home/katagi/vehicle-assistant-system/scenarios/JIP/configs/config_scenario_13.toml 1.0 1.0
simulation_pid=139623
Step #0.00 (0ms ?*RT. ?UPS, TraCI: 335ms, vehicles TOT 1 ACT 1 BUF 0)                     Step #100.00 (0ms ?*RT. ?UPS, TraCI: 18ms, vehicles TOT 26 ACT 26 BUF 0)                  Step #200.00 (1ms ~= 1000.00*RT, ~51000.00UPS, TraCI: 36ms, vehicles TOT 51 ACT 51 BUF 0) Step #300.00 (0ms ?*RT. ?UPS, TraCI: 58ms, vehicles TOT 77 ACT 77 BUF 0)                  Step #400.00 (0ms ?*RT. ?UPS, TraCI: 1327ms, vehicles TOT 104 ACT 104 BUF 0)              Step #500.00 (0ms ?*RT. ?UPS, TraCI: 1071ms, vehicles TOT 131 ACT 131 BUF 0)              Step #600.00 (1ms ~= 1000.00*RT, ~158000.00UPS, TraCI: 933ms, vehicles TOT 158 ACT 158 BUFStep #700.00 (1ms ~= 1000.00*RT, ~176000.00UPS, TraCI: 1521ms, vehicles TOT 191 ACT 176 BUStep #800.00 (0ms ?*RT. ?UPS, TraCI: 1482ms, vehicles TOT 226 ACT 193 BUF 22)             Step #900.00 (0ms ?*RT. ?UPS, TraCI: 942ms, vehicles TOT 251 ACT 209 BUF 35)              Step #1000.00 (1ms ~= 1000.00*RT, ~228000.00UPS, TraCI: 1229ms, vehicles TOT 279 ACT 228 BStep #1100.00 (1ms ~= 1000.00*RT, ~260000.00UPS, TraCI: 1230ms, vehicles TOT 311 ACT 260 BStep #1200.00 (1ms ~= 1000.00*RT, ~276000.00UPS, TraCI: 1566ms, vehicles TOT 335 ACT 276 BStep #1300.00 (1ms ~= 1000.00*RT, ~303000.00UPS, TraCI: 2356ms, vehicles TOT 367 ACT 303 BStep #1400.00 (0ms ?*RT. ?UPS, TraCI: 2633ms, vehicles TOT 402 ACT 316 BUF 84)            Step #1500.00 (1ms ~= 1000.00*RT, ~337000.00UPS, TraCI: 1735ms, vehicles TOT 439 ACT 337 BStep #1600.00 (1ms ~= 1000.00*RT, ~358000.00UPS, TraCI: 1477ms, vehicles TOT 475 ACT 358 BStep #1700.00 (1ms ~= 1000.00*RT, ~379000.00UPS, TraCI: 1011ms, vehicles TOT 504 ACT 379 BStep #1800.00 (1ms ~= 1000.00*RT, ~400000.00UPS, TraCI: 1451ms, vehicles TOT 526 ACT 400 BStep #1900.00 (1ms ~= 1000.00*RT, ~400000.00UPS, TraCI: 699ms, vehicles TOT 526 ACT 400 BUStep #2000.00 (0ms ?*RT. ?UPS, TraCI: 258ms, vehicles TOT 526 ACT 400 BUF 0)              Step #2100.00 (0ms ?*RT. ?UPS, TraCI: 118ms, vehicles TOT 526 ACT 400 BUF 0)              Step #2200.00 (1ms ~= 1000.00*RT, ~400000.00UPS, TraCI: 109ms, vehicles TOT 526 ACT 400 BUStep #2300.00 (1ms ~= 1000.00*RT, ~400000.00UPS, TraCI: 94ms, vehicles TOT 526 ACT 400 BUFStep #2400.00 (0ms ?*RT. ?UPS, TraCI: 81ms, vehicles TOT 526 ACT 400 BUF 0)               Step #2500.00 (0ms ?*RT. ?UPS, TraCI: 78ms, vehicles TOT 526 ACT 400 BUF 0)               Step #2600.00 (0ms ?*RT. ?UPS, TraCI: 77ms, vehicles TOT 526 ACT 400 BUF 0)               Step #2700.00 (0ms ?*RT. ?UPS, TraCI: 79ms, vehicles TOT 526 ACT 400 BUF 0)               Step #2800.00 (0ms ?*RT. ?UPS, TraCI: 77ms, vehicles TOT 526 ACT 400 BUF 0)               Step #2900.00 (0ms ?*RT. ?UPS, TraCI: 80ms, vehicles TOT 526 ACT 400 BUF 0)               Step #3000.00 (0ms ?*RT. ?UPS, TraCI: 78ms, vehicles TOT 526 ACT 400 BUF 0)               
 Retrying in 1 seconds
出現数: {'A1': 362, 'A2': 38}
割合:
  Total: 400
  A1: 362 (90.50%)
  A2: 38 (9.50%)
  B1: 0 (0.00%)
  B2: 0 (0.00%)
mean elapsed_time: 562.4375
OK all vehs arrived 
平均渋滞継続時間: 495.06秒
OK all vehicle abandonment were detected
270
130
===== Simlation Result Summary =====
avg_congestion_duration: 495.06 
arrival_time_by_vehID_dict:{'init_ShelterA_1_0': 221.0, 'init_ShelterA_1_1': 234.0, 'init_ShelterA_1_3': 239.0, 'init_ShelterA_1_4': 281.0, 'init_ShelterA_1_5': 295.0, 'init_ShelterA_1_6': 301.0, 'init_ShelterA_1_9': 307.0, 'init_ShelterA_1_10': 312.0, 'init_ShelterA_1_11': 318.0, 'init_ShelterA_1_12': 325.0, 'init_ShelterA_1_13': 333.0, 'init_ShelterA_1_14': 340.0, 'init_ShelterA_2_2': 344.0, 'init_ShelterA_1_15': 349.0, 'init_ShelterA_1_17': 357.0, 'init_ShelterA_1_18': 363.0, 'init_ShelterA_1_19': 368.0, 'init_ShelterA_1_20': 374.0, 'init_ShelterA_1_22': 379.0, 'init_ShelterA_1_23': 384.0, 'init_ShelterA_2_7': 386.0, 'init_ShelterA_1_25': 389.0, 'init_ShelterA_1_26': 395.0, 'init_ShelterA_2_8': 398.0, 'init_ShelterA_1_27': 401.0, 'init_ShelterA_1_28': 408.0, 'init_ShelterA_2_16': 410.0, 'init_ShelterA_1_29': 415.0, 'init_ShelterA_1_30': 422.0, 'init_ShelterA_1_31': 431.0, 'init_ShelterA_1_32': 440.0, 'init_ShelterA_1_33': 449.0, 'init_ShelterA_1_34': 457.0, 'init_ShelterA_1_35': 464.0, 'init_ShelterA_1_36': 471.0, 'init_ShelterA_1_37': 476.0, 'init_ShelterA_2_21': 476.0, 'init_ShelterA_2_39': 478.0, 'init_ShelterA_2_24': 481.0, 'init_ShelterA_2_44': 481.0, 'init_ShelterA_1_46': 487.0, 'init_ShelterA_2_49': 489.0, 'init_ShelterA_1_58': 556.0, 'init_ShelterA_1_38': 557.0, 'init_ShelterA_2_60': 559.0, 'init_ShelterA_1_40': 582.0, 'init_ShelterA_1_41': 584.0, 'init_ShelterA_1_42': 587.0, 'init_ShelterA_1_43': 590.0, 'init_ShelterA_1_68': 591.0, 'init_ShelterA_1_45': 593.0, 'init_ShelterA_1_47': 596.0, 'init_ShelterA_1_70': 596.0, 'init_ShelterA_1_48': 600.0, 'init_ShelterA_1_50': 602.0, 'init_ShelterA_1_51': 605.0, 'init_ShelterA_1_52': 608.0, 'init_ShelterA_1_53': 611.0, 'init_ShelterA_1_54': 614.0, 'init_ShelterA_1_55': 644.0, 'init_ShelterA_1_74': 648.0, 'init_ShelterA_1_56': 655.0, 'init_ShelterA_1_57': 657.0, 'init_ShelterA_1_59': 660.0, 'init_ShelterA_1_61': 663.0, 'init_ShelterA_1_62': 665.0, 'init_ShelterA_1_63': 670.0, 'init_ShelterA_1_83': 678.0, 'init_ShelterA_1_64': 688.0, 'init_ShelterA_1_65': 690.0, 'init_ShelterA_1_66': 693.0, 'init_ShelterA_1_67': 696.0, 'init_ShelterA_1_69': 698.0, 'init_ShelterA_1_71': 701.0, 'init_ShelterA_1_72': 722.0, 'init_ShelterA_1_73': 725.0, 'init_ShelterA_2_93': 728.0, 'init_ShelterA_1_75': 738.0, 'init_ShelterA_1_76': 743.0, 'init_ShelterA_1_77': 745.0, 'init_ShelterA_1_78': 749.0, 'init_ShelterA_1_79': 751.0, 'init_ShelterA_1_96': 752.0, 'init_ShelterA_1_80': 754.0, 'init_ShelterA_1_81': 760.0, 'init_ShelterA_1_82': 764.0, 'init_ShelterA_1_84': 766.0, 'init_ShelterA_1_85': 773.0, 'init_ShelterA_1_86': 775.0, 'init_ShelterA_1_87': 778.0, 'init_ShelterA_1_88': 811.0, 'init_ShelterA_1_89': 813.0, 'init_ShelterA_1_90': 816.0, 'init_ShelterA_2_109': 816.0, 'init_ShelterA_1_91': 823.0, 'init_ShelterA_1_92': 825.0, 'init_ShelterA_1_94': 830.0, 'init_ShelterA_1_116': 852.0, 'init_ShelterA_1_95': 855.0, 'init_ShelterA_1_97': 857.0, 'init_ShelterA_1_98': 859.0, 'init_ShelterA_1_99': 861.0, 'init_ShelterA_1_120': 862.0, 'init_ShelterA_1_100': 872.0, 'init_ShelterA_1_101': 884.0, 'init_ShelterA_1_102': 886.0, 'init_ShelterA_1_103': 888.0, 'init_ShelterA_1_104': 891.0, 'init_ShelterA_1_105': 900.0, 'init_ShelterA_1_106': 915.0, 'init_ShelterA_1_107': 916.0, 'init_ShelterA_2_126': 917.0, 'init_ShelterA_1_108': 918.0, 'init_ShelterA_1_110': 921.0, 'init_ShelterA_1_111': 923.0, 'init_ShelterA_1_112': 929.0, 'init_ShelterA_1_113': 933.0, 'init_ShelterA_1_114': 935.0, 'init_ShelterA_1_133': 947.0, 'init_ShelterA_1_115': 949.0, 'init_ShelterA_2_137': 949.0, 'init_ShelterA_1_117': 950.0, 'init_ShelterA_1_118': 952.0, 'init_ShelterA_1_119': 955.0, 'init_ShelterA_1_121': 958.0, 'init_ShelterA_1_122': 988.0, 'init_ShelterA_1_123': 996.0, 'init_ShelterA_1_124': 997.0, 'init_ShelterA_2_141': 1000.0, 'init_ShelterA_1_125': 1007.0, 'init_ShelterA_1_127': 1021.0, 'init_ShelterA_1_128': 1023.0, 'init_ShelterA_1_129': 1027.0, 'init_ShelterA_1_130': 1033.0, 'init_ShelterA_1_159': 1036.0, 'init_ShelterA_1_131': 1037.0, 'init_ShelterA_1_132': 1039.0, 'init_ShelterA_1_134': 1041.0, 'init_ShelterA_1_135': 1043.0, 'init_ShelterA_1_162': 1044.0, 'init_ShelterA_1_136': 1046.0, 'init_ShelterA_1_138': 1049.0, 'init_ShelterA_1_164': 1049.0, 'init_ShelterA_1_165': 1053.0, 'init_ShelterA_1_139': 1078.0, 'init_ShelterA_1_140': 1087.0, 'init_ShelterA_1_142': 1104.0, 'newveh_ShelterA_1_152_13': 1118.0, 'init_ShelterA_1_143': 1122.0, 'init_ShelterA_1_144': 1124.0, 'init_ShelterA_1_145': 1126.0, 'init_ShelterA_1_146': 1128.0, 'init_ShelterA_1_147': 1131.0, 'init_ShelterA_1_148': 1134.0, 'init_ShelterA_1_149': 1143.0, 'newveh_ShelterA_2_150_0': 1161.0, 'newveh_ShelterA_2_166_10': 1180.0, 'newveh_ShelterA_2_163_9': 1185.0, 'newveh_ShelterA_2_160_8': 1209.0, 'newveh_ShelterA_2_158_7': 1216.0, 'init_ShelterA_1_194': 1221.0, 'newveh_ShelterA_2_157_6': 1222.0, 'newveh_ShelterA_2_156_5': 1228.0, 'newveh_ShelterA_2_155_4': 1235.0, 'newveh_ShelterA_2_154_3': 1242.0, 'newveh_ShelterA_2_153_2': 1250.0, 'newveh_ShelterA_2_151_1': 1259.0, 'newveh_ShelterA_2_168_12': 1268.0, 'init_ShelterA_1_197': 1273.0, 'newveh_ShelterA_2_167_11': 1278.0, 'init_ShelterA_1_199': 1279.0, 'init_ShelterA_1_169': 1280.0, 'init_ShelterA_1_171': 1282.0, 'init_ShelterA_1_205': 1285.0, 'init_ShelterA_1_207': 1290.0, 'init_ShelterA_1_208': 1297.0, 'newveh_ShelterA_2_161_14': 1297.0, 'init_ShelterA_1_172': 1299.0, 'init_ShelterA_1_176': 1301.0, 'newveh_ShelterA_1_196_22': 1301.0, 'init_ShelterA_1_178': 1303.0, 'init_ShelterA_1_179': 1305.0, 'init_ShelterA_1_209': 1305.0, 'init_ShelterA_1_180': 1308.0, 'init_ShelterA_1_181': 1311.0, 'init_ShelterA_1_182': 1314.0, 'init_ShelterA_1_183': 1317.0, 'init_ShelterA_1_184': 1320.0, 'init_ShelterA_1_185': 1323.0, 'init_ShelterA_1_186': 1326.0, 'init_ShelterA_1_187': 1329.0, 'init_ShelterA_1_188': 1332.0, 'newveh_ShelterA_2_173_15': 1337.0, 'newveh_ShelterA_2_174_17': 1343.0, 'newveh_ShelterA_2_170_16': 1351.0, 'newveh_ShelterA_2_175_18': 1356.0, 'newveh_ShelterA_2_177_19': 1360.0, 'init_ShelterA_2_220': 1370.0, 'newveh_ShelterA_2_189_20': 1377.0, 'init_ShelterA_1_223': 1388.0, 'init_ShelterA_2_224': 1390.0, 'newveh_ShelterA_2_195_21': 1398.0, 'init_ShelterA_1_225': 1399.0, 'init_ShelterA_1_226': 1404.0, 'newveh_ShelterA_2_200_24': 1407.0, 'init_ShelterA_1_228': 1408.0, 'newveh_ShelterA_2_198_23': 1412.0, 'newveh_ShelterA_2_190_25': 1416.0, 'newveh_ShelterA_2_204_32': 1461.0, 'newveh_ShelterA_2_203_31': 1468.0, 'newveh_ShelterA_2_202_30': 1473.0, 'newveh_ShelterA_2_201_29': 1479.0, 'newveh_ShelterA_2_222_58': 1484.0, 'newveh_ShelterA_2_193_28': 1490.0, 'newveh_ShelterA_2_192_27': 1497.0, 'newveh_ShelterA_2_191_26': 1506.0, 'newveh_ShelterA_2_206_33': 1527.0, 'init_ShelterA_1_218': 1529.0, 'init_ShelterA_1_219': 1531.0, 'init_ShelterA_1_221': 1534.0, 'init_ShelterA_1_227': 1535.0, 'newveh_ShelterA_2_210_34': 1543.0, 'newveh_ShelterA_2_214_38': 1548.0, 'newveh_ShelterA_2_213_37': 1553.0, 'init_ShelterA_1_257': 1557.0, 'newveh_ShelterA_2_212_36': 1561.0, 'init_ShelterA_1_260': 1563.0, 'init_ShelterA_1_261': 1570.0, 'newveh_ShelterA_2_211_35': 1571.0, 'init_ShelterA_1_238': 1573.0, 'init_ShelterA_1_239': 1575.0, 'init_ShelterA_1_262': 1577.0, 'newveh_ShelterA_1_237_43': 1581.0, 'newveh_ShelterA_1_232_42': 1585.0, 'newveh_ShelterA_2_217_39': 1585.0, 'init_ShelterA_1_240': 1587.0, 'init_ShelterA_1_241': 1589.0, 'newveh_ShelterA_2_216_41': 1599.0, 'newveh_ShelterA_2_215_40': 1620.0, 'init_ShelterA_1_242': 1622.0, 'init_ShelterA_1_243': 1625.0, 'init_ShelterA_1_244': 1627.0, 'init_ShelterA_1_245': 1629.0, 'init_ShelterA_2_275': 1630.0, 'init_ShelterA_1_246': 1631.0, 'init_ShelterA_1_248': 1640.0, 'init_ShelterA_1_249': 1642.0, 'init_ShelterA_1_250': 1644.0, 'init_ShelterA_1_285': 1661.0, 'newveh_ShelterA_2_247_62': 1661.0, 'newveh_ShelterA_2_259_75': 1669.0, 'newveh_ShelterA_2_263_76': 1690.0, 'init_ShelterA_1_251': 1692.0, 'init_ShelterA_1_252': 1695.0, 'init_ShelterA_1_253': 1696.0, 'init_ShelterA_1_254': 1698.0, 'init_ShelterA_1_255': 1700.0, 'init_ShelterA_1_256': 1703.0, 'init_ShelterA_1_258': 1705.0, 'newveh_ShelterA_2_229_44': 1713.0, 'newveh_ShelterA_2_236_50': 1719.0, 'newveh_ShelterA_2_235_49': 1726.0, 'newveh_ShelterA_2_234_48': 1735.0, 'newveh_ShelterA_2_273_78': 1744.0, 'newveh_ShelterA_2_271_77': 1753.0, 'newveh_ShelterA_2_281_93': 1763.0, 'newveh_ShelterA_2_280_92': 1773.0, 'newveh_ShelterA_2_233_47': 1782.0, 'newveh_ShelterA_2_231_46': 1792.0, 'init_ShelterA_2_321': 1803.0, 'newveh_ShelterA_2_230_45': 1813.0, 'init_ShelterA_1_272': 1815.0, 'init_ShelterA_1_274': 1817.0, 'init_ShelterA_1_276': 1819.0, 'init_ShelterA_1_277': 1821.0, 'newveh_ShelterA_2_279_91': 1830.0, 'newveh_ShelterA_1_288_59': 1834.0, 'init_ShelterA_2_341': 1836.0, 'newveh_ShelterA_2_278_90': 1848.0, 'newveh_ShelterA_1_295_60': 1850.0, 'init_ShelterA_1_282': 1851.0, 'init_ShelterA_1_283': 1853.0, 'init_ShelterA_1_284': 1855.0, 'init_ShelterA_1_343': 1856.0, 'init_ShelterA_1_286': 1857.0, 'init_ShelterA_1_287': 1859.0, 'init_ShelterA_1_289': 1861.0, 'init_ShelterA_1_290': 1863.0, 'init_ShelterA_1_291': 1866.0, 'newveh_ShelterA_2_317_103': 1888.0, 'init_ShelterA_1_292': 1890.0, 'init_ShelterA_1_293': 1892.0, 'init_ShelterA_1_294': 1895.0, 'init_ShelterA_1_296': 1897.0, 'init_ShelterA_1_345': 1898.0, 'init_ShelterA_1_297': 1899.0, 'init_ShelterA_2_346': 1900.0, 'init_ShelterA_1_299': 1901.0, 'init_ShelterA_1_300': 1903.0, 'init_ShelterA_1_301': 1905.0, 'newveh_ShelterA_1_298_61': 1912.0, 'newveh_ShelterA_2_264_51': 1914.0, 'init_ShelterA_1_347': 1920.0, 'newveh_ShelterA_2_270_57': 1920.0, 'init_ShelterA_1_350': 1926.0, 'newveh_ShelterA_2_269_56': 1928.0, 'init_ShelterA_1_352': 1930.0, 'init_ShelterA_1_354': 1935.0, 'newveh_ShelterA_2_268_55': 1937.0, 'newveh_ShelterA_1_308_63': 1941.0, 'newveh_ShelterA_2_267_54': 1946.0, 'newveh_ShelterA_2_266_53': 1956.0, 'newveh_ShelterA_2_265_52': 1966.0, 'init_ShelterA_1_315': 1968.0, 'newveh_ShelterA_2_314_102': 1978.0, 'init_ShelterA_1_367': 1995.0, 'newveh_ShelterA_2_339_117': 2000.0, 'init_ShelterA_1_368': 2001.0, 'init_ShelterA_1_316': 2002.0, 'init_ShelterA_1_318': 2005.0, 'init_ShelterA_1_370': 2005.0, 'init_ShelterA_1_319': 2007.0, 'init_ShelterA_1_320': 2009.0, 'init_ShelterA_1_322': 2011.0, 'init_ShelterA_1_323': 2013.0, 'init_ShelterA_1_326': 2015.0, 'init_ShelterA_1_328': 2017.0, 'init_ShelterA_1_332': 2020.0, 'init_ShelterA_1_338': 2023.0, 'init_ShelterA_1_340': 2026.0, 'init_ShelterA_1_342': 2028.0, 'newveh_ShelterA_2_366_124': 2051.0, 'init_ShelterA_1_344': 2053.0, 'init_ShelterA_1_348': 2055.0, 'init_ShelterA_1_349': 2057.0, 'init_ShelterA_1_358': 2059.0, 'init_ShelterA_1_359': 2061.0, 'init_ShelterA_1_360': 2063.0, 'init_ShelterA_1_361': 2065.0, 'init_ShelterA_1_362': 2068.0, 'newveh_ShelterA_2_302_64': 2075.0, 'init_ShelterA_1_389': 2088.0, 'newveh_ShelterA_2_385_125': 2103.0, 'init_ShelterA_1_369': 2105.0, 'newveh_ShelterA_1_337_89': 2109.0, 'newveh_ShelterA_2_305_67': 2117.0, 'newveh_ShelterA_1_330_85': 2118.0, 'newveh_ShelterA_1_327_84': 2124.0, 'newveh_ShelterA_2_304_66': 2126.0, 'newveh_ShelterA_2_303_65': 2134.0, 'newveh_ShelterA_2_306_68': 2140.0, 'newveh_ShelterA_2_307_69': 2147.0, 'newveh_ShelterA_2_309_70': 2155.0, 'newveh_ShelterA_2_310_71': 2164.0, 'newveh_ShelterA_2_311_72': 2172.0, 'newveh_ShelterA_1_351_94': 2176.0, 'newveh_ShelterA_2_312_73': 2181.0, 'newveh_ShelterA_2_313_74': 2203.0, 'init_ShelterA_1_384': 2205.0, 'init_ShelterA_1_386': 2207.0, 'init_ShelterA_1_387': 2209.0, 'init_ShelterA_1_388': 2211.0, 'init_ShelterA_1_390': 2213.0, 'init_ShelterA_1_391': 2215.0, 'init_ShelterA_1_392': 2217.0, 'init_ShelterA_1_393': 2220.0, 'newveh_ShelterA_2_335_82': 2228.0, 'newveh_ShelterA_2_334_81': 2233.0, 'newveh_ShelterA_2_333_80': 2239.0, 'newveh_ShelterA_2_331_79': 2248.0, 'newveh_ShelterA_2_336_83': 2255.0, 'newveh_ShelterA_2_324_86': 2262.0, 'newveh_ShelterA_1_395_118': 2267.0, 'newveh_ShelterA_2_329_88': 2269.0, 'newveh_ShelterA_2_325_87': 2275.0, 'newveh_ShelterA_1_380_115': 2276.0, 'newveh_ShelterA_2_353_95': 2280.0, 'newveh_ShelterA_1_383_116': 2283.0, 'newveh_ShelterA_2_365_101': 2284.0, 'newveh_ShelterA_1_397_120': 2288.0, 'newveh_ShelterA_2_364_100': 2289.0, 'newveh_ShelterA_1_396_119': 2292.0, 'newveh_ShelterA_2_363_99': 2297.0, 'newveh_ShelterA_2_355_96': 2301.0, 'newveh_ShelterA_2_356_97': 2307.0, 'newveh_ShelterA_2_357_98': 2312.0, 'newveh_ShelterA_2_378_104': 2318.0, 'newveh_ShelterA_2_381_113': 2324.0, 'newveh_ShelterA_2_379_112': 2330.0, 'newveh_ShelterA_2_377_111': 2337.0, 'newveh_ShelterA_2_376_110': 2345.0, 'newveh_ShelterA_2_375_109': 2352.0, 'newveh_ShelterA_2_374_108': 2359.0, 'newveh_ShelterA_2_373_107': 2367.0, 'newveh_ShelterA_2_372_106': 2374.0, 'newveh_ShelterA_2_371_105': 2381.0, 'newveh_ShelterA_2_394_121': 2389.0, 'newveh_ShelterA_2_382_114': 2396.0, 'newveh_ShelterA_2_398_122': 2401.0, 'newveh_ShelterA_2_399_123': 2405.0}
vehicle_abandant_time_by_pedestrianID_dict:{}
walking_distance_by_pedestrianID_dict:{}
route_change_time_by_vehID_dict:{'init_ShelterA_2_39': 350.0, 'init_ShelterA_2_44': 350.0, 'init_ShelterA_2_49': 350.0, 'init_ShelterA_1_38': 360.0, 'init_ShelterA_1_41': 360.0, 'init_ShelterA_1_42': 360.0, 'init_ShelterA_1_40': 370.0, 'init_ShelterA_1_43': 370.0, 'init_ShelterA_1_45': 370.0, 'init_ShelterA_1_47': 370.0, 'init_ShelterA_1_48': 370.0, 'init_ShelterA_1_50': 370.0, 'init_ShelterA_1_51': 370.0, 'init_ShelterA_1_52': 370.0, 'init_ShelterA_1_53': 370.0, 'init_ShelterA_1_54': 400.0, 'init_ShelterA_1_55': 410.0, 'init_ShelterA_1_56': 410.0, 'init_ShelterA_1_57': 420.0, 'init_ShelterA_1_59': 420.0, 'init_ShelterA_1_61': 420.0, 'init_ShelterA_1_62': 420.0, 'init_ShelterA_2_60': 420.0, 'init_ShelterA_1_64': 430.0, 'init_ShelterA_1_65': 430.0, 'init_ShelterA_1_66': 430.0, 'init_ShelterA_1_69': 440.0, 'init_ShelterA_1_71': 440.0, 'init_ShelterA_1_67': 450.0, 'init_ShelterA_1_63': 460.0, 'init_ShelterA_1_72': 490.0, 'init_ShelterA_1_73': 490.0, 'init_ShelterA_1_75': 500.0, 'init_ShelterA_1_79': 500.0, 'init_ShelterA_1_80': 500.0, 'init_ShelterA_1_76': 510.0, 'init_ShelterA_1_77': 510.0, 'init_ShelterA_1_78': 510.0, 'init_ShelterA_1_81': 510.0, 'init_ShelterA_1_82': 510.0, 'init_ShelterA_1_84': 520.0, 'init_ShelterA_1_85': 520.0, 'init_ShelterA_1_86': 520.0, 'init_ShelterA_1_89': 520.0, 'init_ShelterA_1_92': 580.0, 'init_ShelterA_2_93': 580.0, 'init_ShelterA_1_87': 590.0, 'init_ShelterA_1_88': 590.0, 'init_ShelterA_1_90': 590.0, 'init_ShelterA_1_91': 590.0, 'init_ShelterA_1_94': 590.0, 'init_ShelterA_1_95': 590.0, 'init_ShelterA_1_98': 590.0, 'init_ShelterA_1_100': 600.0, 'init_ShelterA_1_101': 600.0, 'init_ShelterA_1_102': 600.0, 'init_ShelterA_1_104': 600.0, 'init_ShelterA_1_97': 600.0, 'init_ShelterA_1_103': 610.0, 'init_ShelterA_1_105': 610.0, 'init_ShelterA_1_107': 610.0, 'init_ShelterA_1_99': 610.0, 'init_ShelterA_1_150': 640.0, 'init_ShelterA_1_151': 640.0, 'init_ShelterA_1_153': 640.0, 'init_ShelterA_1_154': 640.0, 'init_ShelterA_1_155': 640.0, 'init_ShelterA_1_156': 640.0, 'init_ShelterA_1_157': 640.0, 'init_ShelterA_1_158': 640.0, 'init_ShelterA_1_160': 640.0, 'init_ShelterA_1_163': 640.0, 'init_ShelterA_1_166': 640.0, 'init_ShelterA_1_167': 640.0, 'init_ShelterA_1_168': 640.0, 'init_ShelterA_2_152': 640.0, 'init_ShelterA_1_161': 650.0, 'init_ShelterA_2_109': 650.0, 'init_ShelterA_1_106': 660.0, 'init_ShelterA_1_108': 660.0, 'init_ShelterA_1_110': 660.0, 'init_ShelterA_1_111': 660.0, 'init_ShelterA_1_112': 660.0, 'init_ShelterA_1_113': 670.0, 'init_ShelterA_1_114': 670.0, 'init_ShelterA_1_115': 670.0, 'init_ShelterA_1_169': 700.0, 'init_ShelterA_1_173': 710.0, 'init_ShelterA_1_170': 720.0, 'init_ShelterA_1_174': 720.0, 'init_ShelterA_1_175': 720.0, 'init_ShelterA_1_117': 730.0, 'init_ShelterA_1_118': 730.0, 'init_ShelterA_1_119': 730.0, 'init_ShelterA_1_177': 730.0, 'init_ShelterA_1_123': 740.0, 'init_ShelterA_1_124': 750.0, 'init_ShelterA_2_126': 750.0, 'init_ShelterA_1_129': 760.0, 'init_ShelterA_1_132': 760.0, 'init_ShelterA_1_134': 760.0, 'init_ShelterA_1_135': 760.0, 'init_ShelterA_1_187': 760.0, 'init_ShelterA_1_127': 770.0, 'init_ShelterA_1_128': 770.0, 'init_ShelterA_1_130': 770.0, 'init_ShelterA_1_131': 770.0, 'init_ShelterA_1_136': 770.0, 'init_ShelterA_1_138': 770.0, 'init_ShelterA_1_140': 770.0, 'init_ShelterA_1_189': 770.0, 'init_ShelterA_2_137': 770.0, 'init_ShelterA_2_141': 770.0, 'init_ShelterA_1_121': 780.0, 'init_ShelterA_1_122': 780.0, 'init_ShelterA_1_125': 780.0, 'init_ShelterA_1_142': 780.0, 'init_ShelterA_1_195': 780.0, 'init_ShelterA_2_196': 780.0, 'init_ShelterA_1_198': 790.0, 'init_ShelterA_1_200': 790.0, 'init_ShelterA_1_190': 800.0, 'init_ShelterA_1_191': 800.0, 'init_ShelterA_1_192': 800.0, 'init_ShelterA_1_193': 800.0, 'init_ShelterA_1_201': 800.0, 'init_ShelterA_1_202': 800.0, 'init_ShelterA_1_203': 800.0, 'init_ShelterA_1_204': 800.0, 'init_ShelterA_1_206': 810.0, 'init_ShelterA_1_139': 840.0, 'init_ShelterA_1_143': 840.0, 'init_ShelterA_1_144': 840.0, 'init_ShelterA_1_145': 840.0, 'init_ShelterA_1_146': 840.0, 'init_ShelterA_1_147': 840.0, 'init_ShelterA_1_148': 850.0, 'init_ShelterA_1_149': 850.0, 'init_ShelterA_1_210': 880.0, 'init_ShelterA_1_211': 880.0, 'init_ShelterA_1_212': 880.0, 'init_ShelterA_1_213': 880.0, 'init_ShelterA_1_214': 880.0, 'init_ShelterA_1_217': 890.0, 'init_ShelterA_1_215': 900.0, 'init_ShelterA_1_216': 900.0, 'init_ShelterA_1_182': 950.0, 'init_ShelterA_1_172': 960.0, 'init_ShelterA_1_179': 960.0, 'init_ShelterA_1_181': 960.0, 'init_ShelterA_1_171': 970.0, 'init_ShelterA_2_232': 980.0, 'init_ShelterA_2_237': 980.0, 'init_ShelterA_1_183': 990.0, 'init_ShelterA_1_184': 990.0, 'init_ShelterA_1_229': 990.0, 'init_ShelterA_1_230': 990.0, 'init_ShelterA_1_231': 990.0, 'init_ShelterA_1_233': 990.0, 'init_ShelterA_1_234': 990.0, 'init_ShelterA_1_235': 990.0, 'init_ShelterA_1_236': 990.0, 'init_ShelterA_1_185': 1000.0, 'init_ShelterA_1_186': 1000.0, 'init_ShelterA_1_188': 1000.0, 'init_ShelterA_1_176': 1010.0, 'init_ShelterA_1_178': 1010.0, 'init_ShelterA_1_180': 1010.0, 'init_ShelterA_1_218': 1130.0, 'init_ShelterA_1_221': 1130.0, 'init_ShelterA_1_264': 1130.0, 'init_ShelterA_1_265': 1130.0, 'init_ShelterA_1_266': 1130.0, 'init_ShelterA_1_267': 1130.0, 'init_ShelterA_1_268': 1130.0, 'init_ShelterA_1_269': 1130.0, 'init_ShelterA_1_270': 1130.0, 'init_ShelterA_2_220': 1130.0, 'init_ShelterA_1_219': 1140.0, 'init_ShelterA_1_222': 1150.0, 'init_ShelterA_1_227': 1170.0, 'init_ShelterA_1_240': 1170.0, 'init_ShelterA_2_224': 1170.0, 'init_ShelterA_2_288': 1220.0, 'init_ShelterA_2_295': 1240.0, 'init_ShelterA_2_298': 1250.0, 'init_ShelterA_1_247': 1260.0, 'init_ShelterA_1_251': 1270.0, 'init_ShelterA_1_252': 1270.0, 'init_ShelterA_1_254': 1270.0, 'init_ShelterA_1_258': 1280.0, 'init_ShelterA_1_255': 1290.0, 'init_ShelterA_1_256': 1290.0, 'init_ShelterA_2_308': 1290.0, 'init_ShelterA_1_244': 1300.0, 'init_ShelterA_1_249': 1300.0, 'init_ShelterA_1_250': 1310.0, 'init_ShelterA_1_253': 1310.0, 'init_ShelterA_1_302': 1310.0, 'init_ShelterA_1_303': 1310.0, 'init_ShelterA_1_304': 1310.0, 'init_ShelterA_1_305': 1310.0, 'init_ShelterA_1_306': 1310.0, 'init_ShelterA_1_307': 1310.0, 'init_ShelterA_1_309': 1310.0, 'init_ShelterA_1_310': 1310.0, 'init_ShelterA_1_311': 1310.0, 'init_ShelterA_1_312': 1310.0, 'init_ShelterA_1_313': 1310.0, 'init_ShelterA_1_245': 1320.0, 'init_ShelterA_1_248': 1320.0, 'init_ShelterA_1_259': 1320.0, 'init_ShelterA_1_241': 1330.0, 'init_ShelterA_1_242': 1330.0, 'init_ShelterA_1_246': 1330.0, 'init_ShelterA_1_239': 1340.0, 'init_ShelterA_1_243': 1340.0, 'init_ShelterA_1_263': 1340.0, 'init_ShelterA_1_272': 1340.0, 'init_ShelterA_1_238': 1350.0, 'init_ShelterA_1_271': 1360.0, 'init_ShelterA_1_273': 1360.0, 'init_ShelterA_1_276': 1370.0, 'init_ShelterA_1_286': 1400.0, 'init_ShelterA_1_289': 1400.0, 'init_ShelterA_1_290': 1400.0, 'init_ShelterA_1_331': 1400.0, 'init_ShelterA_1_333': 1400.0, 'init_ShelterA_1_334': 1400.0, 'init_ShelterA_1_335': 1400.0, 'init_ShelterA_1_336': 1400.0, 'init_ShelterA_2_327': 1400.0, 'init_ShelterA_2_330': 1400.0, 'init_ShelterA_1_287': 1410.0, 'init_ShelterA_1_324': 1410.0, 'init_ShelterA_1_325': 1410.0, 'init_ShelterA_1_329': 1410.0, 'init_ShelterA_2_337': 1410.0, 'init_ShelterA_2_275': 1420.0, 'init_ShelterA_1_274': 1430.0, 'init_ShelterA_1_277': 1430.0, 'init_ShelterA_1_278': 1430.0, 'init_ShelterA_1_279': 1430.0, 'init_ShelterA_1_280': 1430.0, 'init_ShelterA_1_281': 1430.0, 'init_ShelterA_1_282': 1440.0, 'init_ShelterA_1_283': 1440.0, 'init_ShelterA_1_284': 1450.0, 'init_ShelterA_1_292': 1450.0, 'init_ShelterA_1_291': 1460.0, 'init_ShelterA_1_294': 1470.0, 'init_ShelterA_1_296': 1470.0, 'init_ShelterA_1_297': 1470.0, 'init_ShelterA_1_299': 1470.0, 'init_ShelterA_1_300': 1470.0, 'init_ShelterA_1_301': 1470.0, 'init_ShelterA_2_351': 1470.0, 'init_ShelterA_1_353': 1490.0, 'init_ShelterA_1_355': 1490.0, 'init_ShelterA_1_293': 1500.0, 'init_ShelterA_1_356': 1500.0, 'init_ShelterA_1_357': 1500.0, 'init_ShelterA_1_363': 1500.0, 'init_ShelterA_1_364': 1500.0, 'init_ShelterA_1_365': 1500.0, 'init_ShelterA_1_314': 1530.0, 'init_ShelterA_1_317': 1530.0, 'init_ShelterA_1_320': 1560.0, 'init_ShelterA_1_323': 1560.0, 'init_ShelterA_1_326': 1560.0, 'init_ShelterA_1_332': 1560.0, 'init_ShelterA_1_322': 1570.0, 'init_ShelterA_1_328': 1570.0, 'init_ShelterA_1_342': 1570.0, 'init_ShelterA_1_378': 1570.0, 'init_ShelterA_1_371': 1580.0, 'init_ShelterA_1_372': 1580.0, 'init_ShelterA_1_373': 1580.0, 'init_ShelterA_1_374': 1580.0, 'init_ShelterA_1_375': 1580.0, 'init_ShelterA_1_376': 1580.0, 'init_ShelterA_1_377': 1580.0, 'init_ShelterA_1_379': 1580.0, 'init_ShelterA_1_381': 1580.0, 'init_ShelterA_1_382': 1580.0, 'init_ShelterA_2_380': 1580.0, 'init_ShelterA_2_383': 1590.0, 'init_ShelterA_1_318': 1600.0, 'init_ShelterA_2_321': 1600.0, 'init_ShelterA_1_316': 1610.0, 'init_ShelterA_1_319': 1610.0, 'init_ShelterA_1_338': 1610.0, 'init_ShelterA_1_340': 1610.0, 'init_ShelterA_2_341': 1610.0, 'init_ShelterA_1_339': 1620.0, 'init_ShelterA_2_395': 1620.0, 'init_ShelterA_1_315': 1640.0, 'init_ShelterA_2_396': 1640.0, 'init_ShelterA_2_397': 1640.0, 'init_ShelterA_1_348': 1650.0, 'init_ShelterA_1_394': 1650.0, 'init_ShelterA_1_398': 1650.0, 'init_ShelterA_1_399': 1650.0, 'init_ShelterA_1_362': 1660.0, 'init_ShelterA_1_360': 1670.0, 'init_ShelterA_1_361': 1670.0, 'init_ShelterA_1_358': 1690.0, 'init_ShelterA_1_359': 1690.0, 'init_ShelterA_2_346': 1690.0, 'init_ShelterA_1_344': 1700.0, 'init_ShelterA_1_349': 1700.0, 'init_ShelterA_1_366': 1700.0, 'init_ShelterA_1_369': 1780.0, 'init_ShelterA_1_385': 1780.0, 'init_ShelterA_1_388': 1810.0, 'init_ShelterA_1_392': 1850.0, 'init_ShelterA_1_386': 1860.0, 'init_ShelterA_1_390': 1860.0, 'init_ShelterA_1_391': 1860.0, 'init_ShelterA_1_384': 1870.0, 'init_ShelterA_1_387': 1870.0, 'init_ShelterA_1_393': 1870.0}
pedestrian_count:0
route_changed_vehicle_count:322
route_change_event_count:322
rate_vehicle_abandonment:0.00%
wrong_way_driving_count:0
vehicle_abandonment_count:0
normalcy_bias_route_change_count:147
majority_bias_route_change_count:175
lane_changed_vehicle_count:0
info_obtained_lanechange_count:0
elapsed_time_lanechange_count:0
majority_bias_lanechange_count:0

=== Job Result ===
end=2026-07-13T03:35:44+0900
elapsed_seconds=382
exit_code=0
status=SUCCESS
