=== Job Info ===
job_name=va_s4_e1.0_v1.0_r20
host=schubert
pid=113274
scenario=4
early_rate=1.0
v2v_rate=1.0
run_id=20
config=/home/katagi/vehicle-assistant-system/scenarios/JIP/configs/config_scenario_4.toml
output_dir=/home/katagi/vehicle-assistant-system/schubert_logs/va_s4_e1.0_v1.0_r20
start=2026-07-13T01:14:55+0900
python_version=Python 3.12.3
sumo_version=Eclipse SUMO sumo Version v1_23_1+0435-630512a

=== Command ===
cd /home/katagi/vehicle-assistant-system/schubert_logs/va_s4_e1.0_v1.0_r20
PYTHONPATH=/home/katagi/vehicle-assistant-system:/home/katagi/tmp/sumo/tools:/home/katagi/local/sumo/tools:/home/katagi/tmp/sumo/tools:/home/katagi/local/sumo/tools:/home/katagi/tmp/sumo/tools:/home/katagi/local/sumo/tools: python3 -W ignore::UserWarning -m scenarios.JIP.1-1-4.simulation.runner_simulator --nogui /home/katagi/vehicle-assistant-system/scenarios/JIP/configs/config_scenario_4.toml 1.0 1.0
simulation_pid=113314
Step #0.00 (0ms ?*RT. ?UPS, TraCI: 331ms, vehicles TOT 1 ACT 1 BUF 0)                     Step #100.00 (0ms ?*RT. ?UPS, TraCI: 17ms, vehicles TOT 26 ACT 26 BUF 0)                  Step #200.00 (0ms ?*RT. ?UPS, TraCI: 37ms, vehicles TOT 51 ACT 51 BUF 0)                  Step #300.00 (1ms ~= 1000.00*RT, ~77000.00UPS, TraCI: 53ms, vehicles TOT 77 ACT 77 BUF 0) Step #400.00 (0ms ?*RT. ?UPS, TraCI: 68ms, vehicles TOT 104 ACT 104 BUF 0)                Step #500.00 (0ms ?*RT. ?UPS, TraCI: 748ms, vehicles TOT 131 ACT 131 BUF 0)               Step #600.00 (1ms ~= 1000.00*RT, ~158000.00UPS, TraCI: 1987ms, vehicles TOT 158 ACT 158 BUStep #700.00 (0ms ?*RT. ?UPS, TraCI: 2054ms, vehicles TOT 186 ACT 186 BUF 0)              Step #800.00 (1ms ~= 1000.00*RT, ~195000.00UPS, TraCI: 3010ms, vehicles TOT 228 ACT 195 BUStep #900.00 (1ms ~= 1000.00*RT, ~210000.00UPS, TraCI: 2331ms, vehicles TOT 254 ACT 210 BUStep #1000.00 (1ms ~= 1000.00*RT, ~240000.00UPS, TraCI: 2132ms, vehicles TOT 287 ACT 240 BStep #1100.00 (1ms ~= 1000.00*RT, ~256000.00UPS, TraCI: 1702ms, vehicles TOT 316 ACT 256 BStep #1200.00 (1ms ~= 1000.00*RT, ~284000.00UPS, TraCI: 1892ms, vehicles TOT 347 ACT 284 BStep #1300.00 (1ms ~= 1000.00*RT, ~298000.00UPS, TraCI: 2443ms, vehicles TOT 377 ACT 298 BStep #1400.00 (1ms ~= 1000.00*RT, ~318000.00UPS, TraCI: 2639ms, vehicles TOT 410 ACT 318 BStep #1500.00 (1ms ~= 1000.00*RT, ~341000.00UPS, TraCI: 2817ms, vehicles TOT 448 ACT 341 BStep #1600.00 (1ms ~= 1000.00*RT, ~367000.00UPS, TraCI: 3098ms, vehicles TOT 477 ACT 367 BStep #1700.00 (1ms ~= 1000.00*RT, ~382000.00UPS, TraCI: 1905ms, vehicles TOT 502 ACT 382 BStep #1800.00 (1ms ~= 1000.00*RT, ~400000.00UPS, TraCI: 2457ms, vehicles TOT 522 ACT 400 BStep #1900.00 (0ms ?*RT. ?UPS, TraCI: 1899ms, vehicles TOT 524 ACT 400 BUF 0)             Step #2000.00 (0ms ?*RT. ?UPS, TraCI: 1084ms, vehicles TOT 524 ACT 400 BUF 0)             Step #2100.00 (0ms ?*RT. ?UPS, TraCI: 492ms, vehicles TOT 524 ACT 400 BUF 0)              Step #2200.00 (0ms ?*RT. ?UPS, TraCI: 96ms, vehicles TOT 524 ACT 400 BUF 0)               Step #2300.00 (0ms ?*RT. ?UPS, TraCI: 99ms, vehicles TOT 524 ACT 400 BUF 0)               Step #2400.00 (1ms ~= 1000.00*RT, ~400000.00UPS, TraCI: 91ms, vehicles TOT 524 ACT 400 BUFStep #2500.00 (0ms ?*RT. ?UPS, TraCI: 78ms, vehicles TOT 524 ACT 400 BUF 0)               Step #2600.00 (0ms ?*RT. ?UPS, TraCI: 78ms, vehicles TOT 524 ACT 400 BUF 0)               Step #2700.00 (0ms ?*RT. ?UPS, TraCI: 78ms, vehicles TOT 524 ACT 400 BUF 0)               Step #2800.00 (0ms ?*RT. ?UPS, TraCI: 78ms, vehicles TOT 524 ACT 400 BUF 0)               Step #2900.00 (0ms ?*RT. ?UPS, TraCI: 79ms, vehicles TOT 524 ACT 400 BUF 0)               Step #3000.00 (0ms ?*RT. ?UPS, TraCI: 78ms, vehicles TOT 524 ACT 400 BUF 0)               
 Retrying in 1 seconds
出現数: {'A1': 362, 'A2': 38}
割合:
  Total: 400
  A1: 362 (90.50%)
  A2: 38 (9.50%)
  B1: 0 (0.00%)
  B2: 0 (0.00%)
mean elapsed_time: 580.9475
OK all vehs arrived 
平均渋滞継続時間: 505.38秒
OK all vehicle abandonment were detected
272
128
===== Simlation Result Summary =====
avg_congestion_duration: 505.38 
arrival_time_by_vehID_dict:{'init_ShelterA_1_0': 205.0, 'init_ShelterA_1_1': 216.0, 'init_ShelterA_1_2': 221.0, 'init_ShelterA_1_3': 230.0, 'init_ShelterA_1_4': 238.0, 'init_ShelterA_1_5': 242.0, 'init_ShelterA_1_6': 247.0, 'init_ShelterA_1_7': 286.0, 'init_ShelterA_1_8': 292.0, 'init_ShelterA_1_9': 297.0, 'init_ShelterA_1_10': 303.0, 'init_ShelterA_1_11': 308.0, 'init_ShelterA_1_12': 314.0, 'init_ShelterA_1_13': 320.0, 'init_ShelterA_1_14': 327.0, 'init_ShelterA_1_15': 334.0, 'init_ShelterA_1_16': 342.0, 'init_ShelterA_1_17': 350.0, 'init_ShelterA_1_18': 359.0, 'init_ShelterA_1_19': 368.0, 'init_ShelterA_1_20': 376.0, 'init_ShelterA_1_21': 384.0, 'init_ShelterA_1_22': 393.0, 'init_ShelterA_1_23': 402.0, 'init_ShelterA_1_25': 411.0, 'init_ShelterA_1_26': 421.0, 'init_ShelterA_1_27': 430.0, 'init_ShelterA_1_28': 440.0, 'init_ShelterA_1_29': 449.0, 'init_ShelterA_1_31': 459.0, 'init_ShelterA_1_32': 469.0, 'init_ShelterA_2_24': 477.0, 'init_ShelterA_1_33': 479.0, 'init_ShelterA_1_34': 488.0, 'init_ShelterA_1_35': 498.0, 'init_ShelterA_2_30': 505.0, 'init_ShelterA_1_36': 507.0, 'init_ShelterA_1_37': 517.0, 'init_ShelterA_1_38': 527.0, 'init_ShelterA_1_39': 537.0, 'init_ShelterA_1_40': 546.0, 'init_ShelterA_1_41': 556.0, 'init_ShelterA_1_42': 565.0, 'init_ShelterA_1_43': 575.0, 'init_ShelterA_2_46': 580.0, 'init_ShelterA_1_44': 584.0, 'init_ShelterA_1_45': 594.0, 'init_ShelterA_1_47': 603.0, 'init_ShelterA_1_48': 613.0, 'init_ShelterA_1_49': 622.0, 'init_ShelterA_1_50': 632.0, 'init_ShelterA_1_51': 641.0, 'init_ShelterA_1_52': 651.0, 'init_ShelterA_2_59': 658.0, 'init_ShelterA_1_53': 660.0, 'init_ShelterA_1_54': 670.0, 'init_ShelterA_1_55': 679.0, 'init_ShelterA_1_56': 689.0, 'init_ShelterA_1_57': 698.0, 'init_ShelterA_1_58': 707.0, 'init_ShelterA_1_60': 716.0, 'init_ShelterA_1_75': 724.0, 'init_ShelterA_1_61': 726.0, 'init_ShelterA_1_62': 735.0, 'init_ShelterA_1_76': 738.0, 'init_ShelterA_1_77': 741.0, 'init_ShelterA_1_80': 743.0, 'init_ShelterA_1_63': 744.0, 'init_ShelterA_1_81': 746.0, 'init_ShelterA_1_82': 750.0, 'init_ShelterA_1_84': 752.0, 'init_ShelterA_1_64': 753.0, 'init_ShelterA_1_65': 762.0, 'init_ShelterA_1_66': 771.0, 'init_ShelterA_1_85': 773.0, 'init_ShelterA_1_67': 780.0, 'init_ShelterA_1_68': 789.0, 'init_ShelterA_2_69': 791.0, 'init_ShelterA_1_70': 801.0, 'init_ShelterA_1_71': 810.0, 'init_ShelterA_1_72': 819.0, 'init_ShelterA_1_73': 828.0, 'init_ShelterA_1_74': 838.0, 'init_ShelterA_2_78': 840.0, 'init_ShelterA_1_79': 850.0, 'init_ShelterA_2_83': 852.0, 'init_ShelterA_1_86': 862.0, 'init_ShelterA_1_87': 872.0, 'init_ShelterA_1_88': 881.0, 'init_ShelterA_1_89': 891.0, 'init_ShelterA_1_90': 900.0, 'init_ShelterA_1_111': 908.0, 'init_ShelterA_1_91': 909.0, 'init_ShelterA_1_113': 910.0, 'init_ShelterA_1_92': 919.0, 'init_ShelterA_2_93': 921.0, 'init_ShelterA_1_94': 931.0, 'init_ShelterA_1_114': 937.0, 'init_ShelterA_1_115': 939.0, 'init_ShelterA_1_95': 941.0, 'init_ShelterA_1_96': 950.0, 'init_ShelterA_1_97': 960.0, 'init_ShelterA_1_98': 969.0, 'init_ShelterA_1_99': 979.0, 'init_ShelterA_1_100': 988.0, 'init_ShelterA_1_126': 990.0, 'init_ShelterA_1_101': 997.0, 'init_ShelterA_1_128': 1002.0, 'init_ShelterA_1_129': 1004.0, 'init_ShelterA_1_102': 1006.0, 'init_ShelterA_1_103': 1016.0, 'init_ShelterA_1_130': 1021.0, 'init_ShelterA_1_131': 1023.0, 'init_ShelterA_1_104': 1025.0, 'init_ShelterA_1_132': 1027.0, 'init_ShelterA_1_133': 1029.0, 'init_ShelterA_1_134': 1032.0, 'init_ShelterA_1_105': 1034.0, 'init_ShelterA_1_135': 1035.0, 'init_ShelterA_1_136': 1038.0, 'init_ShelterA_1_137': 1041.0, 'init_ShelterA_1_106': 1043.0, 'init_ShelterA_1_138': 1048.0, 'init_ShelterA_1_139': 1050.0, 'init_ShelterA_1_107': 1052.0, 'init_ShelterA_1_141': 1060.0, 'init_ShelterA_1_108': 1061.0, 'init_ShelterA_1_109': 1070.0, 'init_ShelterA_2_110': 1072.0, 'init_ShelterA_1_112': 1082.0, 'init_ShelterA_1_116': 1091.0, 'init_ShelterA_1_117': 1101.0, 'init_ShelterA_1_145': 1107.0, 'init_ShelterA_1_148': 1109.0, 'init_ShelterA_1_118': 1110.0, 'init_ShelterA_1_149': 1112.0, 'init_ShelterA_2_119': 1112.0, 'init_ShelterA_1_150': 1115.0, 'init_ShelterA_1_120': 1122.0, 'init_ShelterA_1_154': 1123.0, 'init_ShelterA_1_155': 1128.0, 'init_ShelterA_1_158': 1130.0, 'init_ShelterA_1_121': 1132.0, 'init_ShelterA_1_122': 1141.0, 'init_ShelterA_1_123': 1151.0, 'init_ShelterA_1_124': 1160.0, 'init_ShelterA_1_125': 1169.0, 'init_ShelterA_1_127': 1178.0, 'init_ShelterA_1_140': 1187.0, 'init_ShelterA_2_142': 1190.0, 'init_ShelterA_1_159': 1197.0, 'init_ShelterA_1_143': 1199.0, 'init_ShelterA_1_160': 1199.0, 'init_ShelterA_1_163': 1201.0, 'init_ShelterA_1_164': 1203.0, 'init_ShelterA_1_144': 1209.0, 'init_ShelterA_2_146': 1211.0, 'init_ShelterA_2_147': 1213.0, 'init_ShelterA_1_151': 1224.0, 'init_ShelterA_1_152': 1234.0, 'init_ShelterA_1_153': 1243.0, 'init_ShelterA_2_156': 1245.0, 'init_ShelterA_2_157': 1247.0, 'newveh_ShelterA_2_168_0': 1252.0, 'init_ShelterA_1_161': 1258.0, 'newveh_ShelterA_2_191_17': 1259.0, 'newveh_ShelterA_2_188_16': 1265.0, 'init_ShelterA_1_162': 1268.0, 'newveh_ShelterA_2_187_15': 1273.0, 'init_ShelterA_1_165': 1278.0, 'newveh_ShelterA_2_186_14': 1278.0, 'newveh_ShelterA_2_185_13': 1282.0, 'init_ShelterA_1_166': 1287.0, 'newveh_ShelterA_2_184_12': 1296.0, 'init_ShelterA_1_167': 1297.0, 'init_ShelterA_2_181': 1299.0, 'newveh_ShelterA_2_183_11': 1303.0, 'newveh_ShelterA_2_180_10': 1308.0, 'init_ShelterA_1_189': 1309.0, 'newveh_ShelterA_2_179_9': 1314.0, 'init_ShelterA_1_190': 1319.0, 'newveh_ShelterA_2_178_8': 1319.0, 'newveh_ShelterA_2_175_7': 1325.0, 'newveh_ShelterA_1_182_20': 1329.0, 'newveh_ShelterA_2_174_6': 1332.0, 'newveh_ShelterA_1_177_19': 1336.0, 'newveh_ShelterA_2_173_5': 1338.0, 'newveh_ShelterA_1_176_18': 1342.0, 'newveh_ShelterA_2_172_4': 1346.0, 'init_ShelterA_1_211': 1347.0, 'init_ShelterA_1_212': 1351.0, 'newveh_ShelterA_2_171_3': 1353.0, 'newveh_ShelterA_2_170_2': 1361.0, 'newveh_ShelterA_2_169_1': 1366.0, 'init_ShelterA_1_192': 1368.0, 'init_ShelterA_1_219': 1370.0, 'init_ShelterA_1_221': 1377.0, 'init_ShelterA_1_222': 1382.0, 'init_ShelterA_1_224': 1386.0, 'newveh_ShelterA_2_198_23': 1386.0, 'newveh_ShelterA_2_197_22': 1391.0, 'newveh_ShelterA_1_213_40': 1396.0, 'init_ShelterA_2_229': 1399.0, 'newveh_ShelterA_2_196_21': 1400.0, 'init_ShelterA_2_230': 1401.0, 'init_ShelterA_1_231': 1406.0, 'newveh_ShelterA_2_201_26': 1407.0, 'newveh_ShelterA_2_200_25': 1413.0, 'newveh_ShelterA_2_199_24': 1419.0, 'newveh_ShelterA_2_205_32': 1426.0, 'newveh_ShelterA_2_204_31': 1433.0, 'newveh_ShelterA_2_203_30': 1441.0, 'newveh_ShelterA_2_194_28': 1450.0, 'newveh_ShelterA_2_193_27': 1459.0, 'newveh_ShelterA_2_195_29': 1468.0, 'newveh_ShelterA_2_207_35': 1477.0, 'init_ShelterA_1_241': 1479.0, 'init_ShelterA_1_242': 1486.0, 'newveh_ShelterA_2_206_34': 1486.0, 'newveh_ShelterA_2_202_33': 1491.0, 'newveh_ShelterA_1_218_44': 1493.0, 'newveh_ShelterA_2_223_62': 1497.0, 'newveh_ShelterA_1_220_45': 1498.0, 'init_ShelterA_2_257': 1500.0, 'newveh_ShelterA_2_208_36': 1502.0, 'init_ShelterA_1_258': 1505.0, 'newveh_ShelterA_2_209_37': 1510.0, 'newveh_ShelterA_2_210_38': 1518.0, 'init_ShelterA_1_225': 1520.0, 'newveh_ShelterA_2_214_39': 1542.0, 'init_ShelterA_1_226': 1545.0, 'init_ShelterA_1_259': 1546.0, 'init_ShelterA_1_227': 1547.0, 'init_ShelterA_1_228': 1549.0, 'init_ShelterA_1_232': 1551.0, 'init_ShelterA_1_260': 1553.0, 'init_ShelterA_1_233': 1554.0, 'init_ShelterA_1_234': 1557.0, 'init_ShelterA_1_261': 1559.0, 'init_ShelterA_1_235': 1560.0, 'init_ShelterA_1_236': 1563.0, 'init_ShelterA_1_237': 1566.0, 'init_ShelterA_1_262': 1566.0, 'init_ShelterA_1_238': 1569.0, 'init_ShelterA_1_239': 1572.0, 'init_ShelterA_1_263': 1573.0, 'newveh_ShelterA_2_217_43': 1579.0, 'init_ShelterA_1_264': 1581.0, 'newveh_ShelterA_2_216_42': 1588.0, 'init_ShelterA_1_265': 1590.0, 'newveh_ShelterA_2_215_41': 1593.0, 'init_ShelterA_1_256': 1596.0, 'init_ShelterA_1_266': 1599.0, 'init_ShelterA_1_267': 1608.0, 'init_ShelterA_1_268': 1617.0, 'init_ShelterA_1_269': 1627.0, 'init_ShelterA_1_270': 1637.0, 'newveh_ShelterA_2_280_82': 1639.0, 'init_ShelterA_1_271': 1647.0, 'init_ShelterA_1_272': 1656.0, 'newveh_ShelterA_1_240_46': 1666.0, 'init_ShelterA_1_273': 1676.0, 'init_ShelterA_1_275': 1685.0, 'init_ShelterA_1_276': 1695.0, 'init_ShelterA_1_278': 1705.0, 'init_ShelterA_1_279': 1715.0, 'init_ShelterA_1_281': 1724.0, 'init_ShelterA_1_282': 1734.0, 'newveh_ShelterA_2_251_47': 1739.0, 'init_ShelterA_1_286': 1742.0, 'init_ShelterA_1_283': 1744.0, 'init_ShelterA_1_284': 1753.0, 'init_ShelterA_1_285': 1763.0, 'newveh_ShelterA_1_244_48': 1772.0, 'newveh_ShelterA_2_243_52': 1774.0, 'init_ShelterA_1_287': 1782.0, 'newveh_ShelterA_2_248_50': 1782.0, 'newveh_ShelterA_2_246_49': 1790.0, 'init_ShelterA_1_288': 1791.0, 'newveh_ShelterA_2_249_51': 1794.0, 'newveh_ShelterA_2_323_108': 1798.0, 'init_ShelterA_1_289': 1801.0, 'init_ShelterA_1_293': 1811.0, 'newveh_ShelterA_2_321_107': 1817.0, 'init_ShelterA_1_298': 1820.0, 'newveh_ShelterA_2_245_53': 1827.0, 'init_ShelterA_1_299': 1830.0, 'newveh_ShelterA_2_247_54': 1834.0, 'init_ShelterA_1_300': 1839.0, 'newveh_ShelterA_2_250_55': 1840.0, 'newveh_ShelterA_2_252_56': 1845.0, 'init_ShelterA_1_301': 1849.0, 'newveh_ShelterA_2_253_57': 1852.0, 'newveh_ShelterA_1_274_60': 1858.0, 'newveh_ShelterA_2_254_58': 1859.0, 'newveh_ShelterA_2_255_59': 1864.0, 'init_ShelterA_1_302': 1866.0, 'init_ShelterA_1_311': 1867.0, 'init_ShelterA_1_303': 1868.0, 'newveh_ShelterA_1_325_109': 1876.0, 'newveh_ShelterA_2_345_110': 1880.0, 'newveh_ShelterA_1_277_61': 1885.0, 'init_ShelterA_1_318': 1895.0, 'init_ShelterA_1_322': 1904.0, 'init_ShelterA_1_327': 1911.0, 'init_ShelterA_1_315': 1914.0, 'init_ShelterA_1_319': 1916.0, 'init_ShelterA_1_330': 1918.0, 'init_ShelterA_1_320': 1924.0, 'init_ShelterA_1_331': 1924.0, 'newveh_ShelterA_1_292_64': 1930.0, 'init_ShelterA_1_324': 1931.0, 'init_ShelterA_1_326': 1933.0, 'init_ShelterA_1_328': 1936.0, 'init_ShelterA_1_329': 1938.0, 'init_ShelterA_1_346': 1938.0, 'init_ShelterA_1_342': 1940.0, 'init_ShelterA_1_348': 1946.0, 'init_ShelterA_1_349': 1956.0, 'newveh_ShelterA_2_290_63': 1958.0, 'init_ShelterA_1_350': 1965.0, 'init_ShelterA_2_351': 1967.0, 'init_ShelterA_1_352': 1977.0, 'init_ShelterA_1_354': 1983.0, 'init_ShelterA_1_355': 1988.0, 'init_ShelterA_1_357': 1993.0, 'newveh_ShelterA_2_297_69': 1996.0, 'newveh_ShelterA_1_312_78': 1997.0, 'newveh_ShelterA_1_307_77': 2003.0, 'init_ShelterA_2_368': 2005.0, 'newveh_ShelterA_2_296_68': 2011.0, 'init_ShelterA_1_369': 2014.0, 'init_ShelterA_1_370': 2019.0, 'newveh_ShelterA_2_295_67': 2020.0, 'init_ShelterA_1_371': 2023.0, 'newveh_ShelterA_2_294_66': 2026.0, 'newveh_ShelterA_2_291_65': 2031.0, 'init_ShelterA_1_353': 2033.0, 'init_ShelterA_1_373': 2033.0, 'init_ShelterA_1_374': 2038.0, 'newveh_ShelterA_2_304_70': 2041.0, 'newveh_ShelterA_2_313_76': 2051.0, 'newveh_ShelterA_2_377_121': 2055.0, 'init_ShelterA_1_375': 2080.0, 'newveh_ShelterA_2_376_120': 2084.0, 'init_ShelterA_1_378': 2092.0, 'newveh_ShelterA_2_310_75': 2092.0, 'newveh_ShelterA_2_309_74': 2096.0, 'init_ShelterA_1_379': 2099.0, 'init_ShelterA_1_380': 2104.0, 'init_ShelterA_1_381': 2110.0, 'newveh_ShelterA_2_308_73': 2112.0, 'init_ShelterA_1_382': 2117.0, 'init_ShelterA_1_384': 2124.0, 'init_ShelterA_1_386': 2131.0, 'newveh_ShelterA_2_306_72': 2135.0, 'init_ShelterA_1_387': 2139.0, 'newveh_ShelterA_2_305_71': 2142.0, 'init_ShelterA_1_390': 2145.0, 'newveh_ShelterA_2_314_79': 2147.0, 'newveh_ShelterA_1_344_83': 2150.0, 'newveh_ShelterA_1_347_95': 2154.0, 'newveh_ShelterA_2_317_81': 2156.0, 'newveh_ShelterA_2_316_80': 2161.0, 'init_ShelterA_1_372': 2164.0, 'newveh_ShelterA_2_389_123': 2169.0, 'newveh_ShelterA_2_388_122': 2173.0, 'newveh_ShelterA_1_361_96': 2187.0, 'init_ShelterA_1_383': 2191.0, 'init_ShelterA_1_385': 2193.0, 'newveh_ShelterA_2_332_84': 2214.0, 'newveh_ShelterA_2_336_92': 2218.0, 'newveh_ShelterA_2_343_91': 2228.0, 'newveh_ShelterA_2_340_90': 2286.0, 'newveh_ShelterA_2_339_89': 2293.0, 'newveh_ShelterA_2_337_88': 2299.0, 'newveh_ShelterA_2_335_87': 2304.0, 'newveh_ShelterA_2_334_86': 2311.0, 'newveh_ShelterA_2_333_85': 2317.0, 'newveh_ShelterA_2_338_93': 2324.0, 'newveh_ShelterA_2_341_94': 2332.0, 'newveh_ShelterA_2_356_98': 2340.0, 'newveh_ShelterA_2_363_104': 2349.0, 'newveh_ShelterA_2_358_97': 2358.0, 'newveh_ShelterA_2_367_103': 2367.0, 'newveh_ShelterA_2_364_102': 2376.0, 'newveh_ShelterA_2_362_101': 2385.0, 'newveh_ShelterA_2_360_100': 2391.0, 'newveh_ShelterA_2_359_99': 2396.0, 'newveh_ShelterA_2_365_105': 2402.0, 'newveh_ShelterA_2_366_106': 2408.0, 'newveh_ShelterA_2_391_111': 2414.0, 'newveh_ShelterA_2_397_117': 2421.0, 'newveh_ShelterA_2_396_116': 2429.0, 'newveh_ShelterA_2_395_115': 2438.0, 'newveh_ShelterA_2_394_114': 2447.0, 'newveh_ShelterA_2_393_113': 2455.0, 'newveh_ShelterA_2_392_112': 2463.0, 'newveh_ShelterA_2_398_118': 2467.0, 'newveh_ShelterA_2_399_119': 2472.0}
vehicle_abandant_time_by_pedestrianID_dict:{}
walking_distance_by_pedestrianID_dict:{}
route_change_time_by_vehID_dict:{'init_ShelterA_2_69': 510.0, 'init_ShelterA_2_78': 520.0, 'init_ShelterA_2_83': 520.0, 'init_ShelterA_1_81': 530.0, 'init_ShelterA_1_76': 550.0, 'init_ShelterA_1_77': 550.0, 'init_ShelterA_1_82': 550.0, 'init_ShelterA_1_84': 550.0, 'init_ShelterA_1_85': 550.0, 'init_ShelterA_1_80': 560.0, 'init_ShelterA_1_75': 570.0, 'init_ShelterA_2_93': 600.0, 'init_ShelterA_2_110': 670.0, 'init_ShelterA_1_111': 680.0, 'init_ShelterA_1_113': 680.0, 'init_ShelterA_1_115': 680.0, 'init_ShelterA_2_119': 690.0, 'init_ShelterA_1_114': 700.0, 'init_ShelterA_1_168': 720.0, 'init_ShelterA_1_169': 720.0, 'init_ShelterA_1_170': 720.0, 'init_ShelterA_1_171': 720.0, 'init_ShelterA_1_172': 720.0, 'init_ShelterA_1_173': 720.0, 'init_ShelterA_1_174': 720.0, 'init_ShelterA_1_175': 720.0, 'init_ShelterA_1_178': 720.0, 'init_ShelterA_1_179': 720.0, 'init_ShelterA_1_180': 720.0, 'init_ShelterA_1_183': 720.0, 'init_ShelterA_1_184': 720.0, 'init_ShelterA_1_185': 720.0, 'init_ShelterA_1_186': 720.0, 'init_ShelterA_1_187': 720.0, 'init_ShelterA_1_188': 720.0, 'init_ShelterA_1_191': 720.0, 'init_ShelterA_2_176': 720.0, 'init_ShelterA_2_177': 720.0, 'init_ShelterA_2_182': 720.0, 'init_ShelterA_1_126': 750.0, 'init_ShelterA_1_130': 760.0, 'init_ShelterA_1_133': 760.0, 'init_ShelterA_1_136': 760.0, 'init_ShelterA_1_128': 770.0, 'init_ShelterA_1_131': 770.0, 'init_ShelterA_1_132': 770.0, 'init_ShelterA_1_134': 770.0, 'init_ShelterA_1_137': 770.0, 'init_ShelterA_1_139': 770.0, 'init_ShelterA_1_192': 770.0, 'init_ShelterA_1_135': 780.0, 'init_ShelterA_1_141': 780.0, 'init_ShelterA_2_142': 780.0, 'init_ShelterA_1_196': 790.0, 'init_ShelterA_1_197': 790.0, 'init_ShelterA_1_198': 790.0, 'init_ShelterA_1_199': 790.0, 'init_ShelterA_1_200': 790.0, 'init_ShelterA_1_201': 790.0, 'init_ShelterA_1_193': 800.0, 'init_ShelterA_1_194': 800.0, 'init_ShelterA_1_195': 800.0, 'init_ShelterA_1_203': 800.0, 'init_ShelterA_1_204': 800.0, 'init_ShelterA_1_205': 800.0, 'init_ShelterA_1_202': 810.0, 'init_ShelterA_1_206': 810.0, 'init_ShelterA_1_207': 810.0, 'init_ShelterA_1_208': 810.0, 'init_ShelterA_1_209': 810.0, 'init_ShelterA_1_129': 820.0, 'init_ShelterA_1_138': 820.0, 'init_ShelterA_1_210': 830.0, 'init_ShelterA_2_146': 840.0, 'init_ShelterA_1_149': 850.0, 'init_ShelterA_1_150': 850.0, 'init_ShelterA_1_214': 850.0, 'init_ShelterA_2_147': 850.0, 'init_ShelterA_1_145': 860.0, 'init_ShelterA_2_156': 860.0, 'init_ShelterA_2_157': 860.0, 'init_ShelterA_2_213': 860.0, 'init_ShelterA_1_160': 870.0, 'init_ShelterA_1_154': 880.0, 'init_ShelterA_1_215': 890.0, 'init_ShelterA_1_216': 890.0, 'init_ShelterA_1_217': 890.0, 'init_ShelterA_1_155': 910.0, 'init_ShelterA_1_148': 920.0, 'init_ShelterA_2_181': 930.0, 'init_ShelterA_1_163': 940.0, 'init_ShelterA_2_218': 940.0, 'init_ShelterA_2_220': 940.0, 'init_ShelterA_1_159': 950.0, 'init_ShelterA_1_164': 950.0, 'init_ShelterA_1_158': 960.0, 'init_ShelterA_2_240': 1000.0, 'init_ShelterA_1_251': 1040.0, 'init_ShelterA_2_244': 1040.0, 'init_ShelterA_1_246': 1050.0, 'init_ShelterA_1_248': 1050.0, 'init_ShelterA_1_249': 1050.0, 'init_ShelterA_1_243': 1060.0, 'init_ShelterA_1_245': 1060.0, 'init_ShelterA_1_247': 1060.0, 'init_ShelterA_1_250': 1060.0, 'init_ShelterA_1_252': 1060.0, 'init_ShelterA_1_253': 1060.0, 'init_ShelterA_1_254': 1060.0, 'init_ShelterA_1_255': 1060.0, 'init_ShelterA_2_274': 1130.0, 'init_ShelterA_2_277': 1140.0, 'init_ShelterA_1_223': 1150.0, 'init_ShelterA_2_229': 1170.0, 'init_ShelterA_1_226': 1180.0, 'init_ShelterA_1_225': 1200.0, 'init_ShelterA_1_232': 1210.0, 'init_ShelterA_2_230': 1210.0, 'init_ShelterA_1_233': 1220.0, 'init_ShelterA_1_237': 1220.0, 'init_ShelterA_1_234': 1230.0, 'init_ShelterA_1_235': 1230.0, 'init_ShelterA_1_236': 1230.0, 'init_ShelterA_1_239': 1230.0, 'init_ShelterA_1_290': 1230.0, 'init_ShelterA_2_292': 1230.0, 'init_ShelterA_1_238': 1240.0, 'init_ShelterA_1_291': 1240.0, 'init_ShelterA_1_294': 1240.0, 'init_ShelterA_1_295': 1240.0, 'init_ShelterA_1_296': 1240.0, 'init_ShelterA_1_297': 1240.0, 'init_ShelterA_2_257': 1260.0, 'init_ShelterA_1_227': 1270.0, 'init_ShelterA_1_228': 1270.0, 'init_ShelterA_1_304': 1300.0, 'init_ShelterA_1_305': 1300.0, 'init_ShelterA_1_306': 1300.0, 'init_ShelterA_1_308': 1300.0, 'init_ShelterA_1_309': 1300.0, 'init_ShelterA_1_310': 1300.0, 'init_ShelterA_1_313': 1300.0, 'init_ShelterA_2_307': 1300.0, 'init_ShelterA_2_312': 1300.0, 'init_ShelterA_1_314': 1310.0, 'init_ShelterA_1_316': 1310.0, 'init_ShelterA_1_317': 1310.0, 'init_ShelterA_1_280': 1350.0, 'init_ShelterA_1_256': 1360.0, 'init_ShelterA_1_286': 1380.0, 'init_ShelterA_2_344': 1390.0, 'init_ShelterA_1_332': 1400.0, 'init_ShelterA_1_333': 1400.0, 'init_ShelterA_1_334': 1400.0, 'init_ShelterA_1_335': 1400.0, 'init_ShelterA_1_337': 1400.0, 'init_ShelterA_1_339': 1400.0, 'init_ShelterA_1_340': 1400.0, 'init_ShelterA_1_343': 1400.0, 'init_ShelterA_1_336': 1410.0, 'init_ShelterA_1_338': 1410.0, 'init_ShelterA_1_341': 1410.0, 'init_ShelterA_2_347': 1420.0, 'init_ShelterA_2_361': 1470.0, 'init_ShelterA_1_358': 1480.0, 'init_ShelterA_1_356': 1490.0, 'init_ShelterA_1_359': 1490.0, 'init_ShelterA_1_360': 1490.0, 'init_ShelterA_1_362': 1490.0, 'init_ShelterA_1_364': 1490.0, 'init_ShelterA_1_367': 1490.0, 'init_ShelterA_1_363': 1500.0, 'init_ShelterA_1_365': 1500.0, 'init_ShelterA_1_366': 1500.0, 'init_ShelterA_1_321': 1520.0, 'init_ShelterA_1_323': 1530.0, 'init_ShelterA_2_325': 1530.0, 'init_ShelterA_1_328': 1550.0, 'init_ShelterA_1_329': 1550.0, 'init_ShelterA_1_342': 1550.0, 'init_ShelterA_1_324': 1590.0, 'init_ShelterA_1_326': 1590.0, 'init_ShelterA_1_315': 1600.0, 'init_ShelterA_1_319': 1600.0, 'init_ShelterA_1_320': 1600.0, 'init_ShelterA_1_345': 1610.0, 'init_ShelterA_1_302': 1630.0, 'init_ShelterA_1_303': 1630.0, 'init_ShelterA_1_391': 1640.0, 'init_ShelterA_1_392': 1640.0, 'init_ShelterA_1_393': 1640.0, 'init_ShelterA_1_394': 1640.0, 'init_ShelterA_1_395': 1640.0, 'init_ShelterA_1_396': 1640.0, 'init_ShelterA_1_397': 1670.0, 'init_ShelterA_1_398': 1670.0, 'init_ShelterA_1_399': 1670.0, 'init_ShelterA_2_351': 1680.0, 'init_ShelterA_2_368': 1700.0, 'init_ShelterA_1_376': 1770.0, 'init_ShelterA_1_377': 1770.0, 'init_ShelterA_1_353': 1810.0, 'init_ShelterA_1_388': 1860.0, 'init_ShelterA_1_389': 1860.0, 'init_ShelterA_1_372': 1900.0, 'init_ShelterA_1_385': 1990.0, 'init_ShelterA_1_383': 2000.0}
pedestrian_count:0
route_changed_vehicle_count:207
route_change_event_count:207
rate_vehicle_abandonment:0.00%
wrong_way_driving_count:0
vehicle_abandonment_count:0
normalcy_bias_route_change_count:155
majority_bias_route_change_count:52
lane_changed_vehicle_count:0
info_obtained_lanechange_count:0
elapsed_time_lanechange_count:0
majority_bias_lanechange_count:0

=== Job Result ===
end=2026-07-13T01:23:45+0900
elapsed_seconds=530
exit_code=0
status=SUCCESS
