=== Job Info ===
job_name=va_s10_e1.0_v1.0_r18
host=schubert
pid=130863
scenario=10
early_rate=1.0
v2v_rate=1.0
run_id=18
config=/home/katagi/vehicle-assistant-system/scenarios/JIP/configs/config_scenario_10.toml
output_dir=/home/katagi/vehicle-assistant-system/schubert_logs/va_s10_e1.0_v1.0_r18
start=2026-07-13T02:48:15+0900
python_version=Python 3.12.3
sumo_version=Eclipse SUMO sumo Version v1_23_1+0435-630512a

=== Command ===
cd /home/katagi/vehicle-assistant-system/schubert_logs/va_s10_e1.0_v1.0_r18
PYTHONPATH=/home/katagi/vehicle-assistant-system:/home/katagi/tmp/sumo/tools:/home/katagi/local/sumo/tools:/home/katagi/tmp/sumo/tools:/home/katagi/local/sumo/tools:/home/katagi/tmp/sumo/tools:/home/katagi/local/sumo/tools: python3 -W ignore::UserWarning -m scenarios.JIP.1-1-4.simulation.runner_simulator --nogui /home/katagi/vehicle-assistant-system/scenarios/JIP/configs/config_scenario_10.toml 1.0 1.0
simulation_pid=130883
Step #0.00 (0ms ?*RT. ?UPS, TraCI: 328ms, vehicles TOT 1 ACT 1 BUF 0)                     Step #100.00 (0ms ?*RT. ?UPS, TraCI: 17ms, vehicles TOT 26 ACT 26 BUF 0)                  Step #200.00 (0ms ?*RT. ?UPS, TraCI: 37ms, vehicles TOT 51 ACT 51 BUF 0)                  Step #300.00 (0ms ?*RT. ?UPS, TraCI: 55ms, vehicles TOT 77 ACT 77 BUF 0)                  Step #400.00 (0ms ?*RT. ?UPS, TraCI: 71ms, vehicles TOT 104 ACT 104 BUF 0)                Step #500.00 (0ms ?*RT. ?UPS, TraCI: 1807ms, vehicles TOT 131 ACT 131 BUF 0)              Step #600.00 (1ms ~= 1000.00*RT, ~158000.00UPS, TraCI: 1533ms, vehicles TOT 158 ACT 158 BUStep #700.00 (1ms ~= 1000.00*RT, ~184000.00UPS, TraCI: 1436ms, vehicles TOT 184 ACT 184 BUStep #800.00 (0ms ?*RT. ?UPS, TraCI: 789ms, vehicles TOT 207 ACT 207 BUF 8)               Step #900.00 (1ms ~= 1000.00*RT, ~209000.00UPS, TraCI: 1592ms, vehicles TOT 235 ACT 209 BUStep #1000.00 (0ms ?*RT. ?UPS, TraCI: 1635ms, vehicles TOT 271 ACT 234 BUF 40)            Step #1100.00 (0ms ?*RT. ?UPS, TraCI: 496ms, vehicles TOT 307 ACT 252 BUF 52)             Step #1200.00 (1ms ~= 1000.00*RT, ~274000.00UPS, TraCI: 1026ms, vehicles TOT 330 ACT 274 BStep #1300.00 (1ms ~= 1000.00*RT, ~298000.00UPS, TraCI: 2091ms, vehicles TOT 357 ACT 298 BStep #1400.00 (1ms ~= 1000.00*RT, ~314000.00UPS, TraCI: 2480ms, vehicles TOT 386 ACT 314 BStep #1500.00 (0ms ?*RT. ?UPS, TraCI: 2238ms, vehicles TOT 421 ACT 337 BUF 63)            Step #1600.00 (1ms ~= 1000.00*RT, ~352000.00UPS, TraCI: 1840ms, vehicles TOT 452 ACT 352 BStep #1700.00 (1ms ~= 1000.00*RT, ~377000.00UPS, TraCI: 1899ms, vehicles TOT 486 ACT 377 BStep #1800.00 (1ms ~= 1000.00*RT, ~398000.00UPS, TraCI: 1950ms, vehicles TOT 507 ACT 398 BStep #1900.00 (1ms ~= 1000.00*RT, ~400000.00UPS, TraCI: 1715ms, vehicles TOT 509 ACT 400 BStep #2000.00 (0ms ?*RT. ?UPS, TraCI: 936ms, vehicles TOT 509 ACT 400 BUF 0)              Step #2100.00 (0ms ?*RT. ?UPS, TraCI: 532ms, vehicles TOT 509 ACT 400 BUF 0)              Step #2200.00 (1ms ~= 1000.00*RT, ~400000.00UPS, TraCI: 101ms, vehicles TOT 509 ACT 400 BUStep #2300.00 (0ms ?*RT. ?UPS, TraCI: 96ms, vehicles TOT 509 ACT 400 BUF 0)               Step #2400.00 (0ms ?*RT. ?UPS, TraCI: 84ms, vehicles TOT 509 ACT 400 BUF 0)               Step #2500.00 (0ms ?*RT. ?UPS, TraCI: 77ms, vehicles TOT 509 ACT 400 BUF 0)               Step #2600.00 (0ms ?*RT. ?UPS, TraCI: 78ms, vehicles TOT 509 ACT 400 BUF 0)               Step #2700.00 (0ms ?*RT. ?UPS, TraCI: 77ms, vehicles TOT 509 ACT 400 BUF 0)               Step #2800.00 (0ms ?*RT. ?UPS, TraCI: 78ms, vehicles TOT 509 ACT 400 BUF 0)               Step #2900.00 (1ms ~= 1000.00*RT, ~400000.00UPS, TraCI: 77ms, vehicles TOT 509 ACT 400 BUFStep #3000.00 (0ms ?*RT. ?UPS, TraCI: 77ms, vehicles TOT 509 ACT 400 BUF 0)               
 Retrying in 1 seconds
出現数: {'A1': 355, 'A2': 45}
割合:
  Total: 400
  A1: 355 (88.75%)
  A2: 45 (11.25%)
  B1: 0 (0.00%)
  B2: 0 (0.00%)
mean elapsed_time: 549.3025
OK all vehs arrived 
平均渋滞継続時間: 456.07秒
OK all vehicle abandonment were detected
282
118
===== Simlation Result Summary =====
avg_congestion_duration: 456.07 
arrival_time_by_vehID_dict:{'init_ShelterA_1_0': 205.0, 'init_ShelterA_1_1': 212.0, 'init_ShelterA_1_2': 217.0, 'init_ShelterA_1_3': 235.0, 'init_ShelterA_1_4': 241.0, 'init_ShelterA_1_5': 245.0, 'init_ShelterA_1_6': 291.0, 'init_ShelterA_1_7': 297.0, 'init_ShelterA_1_8': 303.0, 'init_ShelterA_1_9': 309.0, 'init_ShelterA_1_10': 315.0, 'init_ShelterA_1_11': 322.0, 'init_ShelterA_1_12': 329.0, 'init_ShelterA_1_13': 337.0, 'init_ShelterA_1_14': 346.0, 'init_ShelterA_1_16': 355.0, 'init_ShelterA_1_17': 364.0, 'init_ShelterA_1_18': 372.0, 'init_ShelterA_1_19': 380.0, 'init_ShelterA_1_20': 389.0, 'init_ShelterA_1_22': 398.0, 'init_ShelterA_1_23': 407.0, 'init_ShelterA_1_24': 417.0, 'init_ShelterA_2_15': 419.0, 'init_ShelterA_2_21': 424.0, 'init_ShelterA_1_25': 426.0, 'init_ShelterA_1_26': 436.0, 'init_ShelterA_1_27': 446.0, 'init_ShelterA_1_28': 456.0, 'init_ShelterA_1_29': 465.0, 'init_ShelterA_1_30': 475.0, 'init_ShelterA_2_33': 481.0, 'init_ShelterA_1_31': 485.0, 'init_ShelterA_2_35': 486.0, 'init_ShelterA_1_32': 494.0, 'init_ShelterA_1_34': 504.0, 'init_ShelterA_1_36': 514.0, 'init_ShelterA_1_37': 523.0, 'init_ShelterA_1_38': 533.0, 'init_ShelterA_1_39': 543.0, 'init_ShelterA_1_40': 552.0, 'init_ShelterA_1_41': 562.0, 'init_ShelterA_1_42': 571.0, 'init_ShelterA_2_50': 580.0, 'init_ShelterA_1_43': 581.0, 'init_ShelterA_1_44': 590.0, 'init_ShelterA_1_45': 600.0, 'init_ShelterA_1_46': 609.0, 'init_ShelterA_1_47': 619.0, 'init_ShelterA_1_48': 628.0, 'init_ShelterA_1_49': 638.0, 'init_ShelterA_1_51': 647.0, 'init_ShelterA_1_60': 653.0, 'init_ShelterA_1_52': 657.0, 'init_ShelterA_1_61': 657.0, 'init_ShelterA_1_63': 659.0, 'init_ShelterA_1_65': 663.0, 'init_ShelterA_1_53': 666.0, 'init_ShelterA_1_66': 672.0, 'init_ShelterA_1_54': 675.0, 'init_ShelterA_1_67': 682.0, 'init_ShelterA_1_55': 685.0, 'init_ShelterA_1_68': 685.0, 'init_ShelterA_1_69': 687.0, 'init_ShelterA_1_70': 690.0, 'init_ShelterA_1_56': 694.0, 'init_ShelterA_1_71': 702.0, 'init_ShelterA_1_57': 703.0, 'init_ShelterA_1_72': 704.0, 'init_ShelterA_1_73': 707.0, 'init_ShelterA_1_74': 710.0, 'init_ShelterA_1_58': 712.0, 'init_ShelterA_2_59': 714.0, 'init_ShelterA_1_62': 724.0, 'init_ShelterA_1_75': 727.0, 'init_ShelterA_1_78': 733.0, 'init_ShelterA_1_64': 734.0, 'init_ShelterA_1_79': 735.0, 'init_ShelterA_1_80': 738.0, 'init_ShelterA_1_76': 743.0, 'init_ShelterA_1_77': 752.0, 'init_ShelterA_2_81': 754.0, 'init_ShelterA_1_83': 762.0, 'init_ShelterA_1_84': 764.0, 'init_ShelterA_1_82': 765.0, 'init_ShelterA_2_85': 767.0, 'init_ShelterA_2_86': 769.0, 'init_ShelterA_1_87': 780.0, 'init_ShelterA_1_88': 790.0, 'init_ShelterA_1_89': 799.0, 'init_ShelterA_1_90': 809.0, 'init_ShelterA_1_91': 819.0, 'init_ShelterA_1_92': 828.0, 'init_ShelterA_1_97': 833.0, 'init_ShelterA_1_100': 835.0, 'init_ShelterA_1_93': 838.0, 'init_ShelterA_1_101': 841.0, 'init_ShelterA_1_94': 847.0, 'init_ShelterA_1_95': 857.0, 'init_ShelterA_1_96': 866.0, 'init_ShelterA_1_98': 875.0, 'init_ShelterA_2_99': 877.0, 'init_ShelterA_1_102': 881.0, 'init_ShelterA_1_103': 883.0, 'init_ShelterA_1_104': 886.0, 'init_ShelterA_1_105': 888.0, 'init_ShelterA_1_111': 888.0, 'init_ShelterA_1_106': 891.0, 'init_ShelterA_1_107': 894.0, 'init_ShelterA_1_112': 895.0, 'init_ShelterA_2_113': 898.0, 'init_ShelterA_1_108': 900.0, 'init_ShelterA_1_116': 903.0, 'init_ShelterA_1_123': 907.0, 'init_ShelterA_2_130': 911.0, 'init_ShelterA_1_132': 935.0, 'init_ShelterA_2_137': 937.0, 'init_ShelterA_1_138': 948.0, 'init_ShelterA_2_139': 951.0, 'init_ShelterA_1_109': 957.0, 'init_ShelterA_1_110': 959.0, 'init_ShelterA_1_114': 961.0, 'init_ShelterA_1_115': 964.0, 'init_ShelterA_1_117': 967.0, 'init_ShelterA_1_118': 970.0, 'init_ShelterA_1_119': 973.0, 'init_ShelterA_1_120': 975.0, 'init_ShelterA_1_121': 978.0, 'init_ShelterA_1_122': 981.0, 'init_ShelterA_1_124': 1009.0, 'init_ShelterA_1_125': 1011.0, 'init_ShelterA_1_126': 1014.0, 'init_ShelterA_1_147': 1015.0, 'init_ShelterA_1_127': 1016.0, 'init_ShelterA_2_149': 1017.0, 'init_ShelterA_1_128': 1019.0, 'init_ShelterA_2_151': 1019.0, 'init_ShelterA_1_129': 1022.0, 'init_ShelterA_2_156': 1023.0, 'init_ShelterA_1_131': 1025.0, 'init_ShelterA_1_133': 1028.0, 'init_ShelterA_1_134': 1031.0, 'init_ShelterA_1_135': 1034.0, 'init_ShelterA_1_136': 1037.0, 'init_ShelterA_1_140': 1040.0, 'init_ShelterA_2_160': 1081.0, 'init_ShelterA_1_141': 1089.0, 'init_ShelterA_1_142': 1091.0, 'init_ShelterA_2_161': 1098.0, 'init_ShelterA_1_163': 1111.0, 'init_ShelterA_1_168': 1116.0, 'init_ShelterA_2_172': 1118.0, 'init_ShelterA_1_143': 1127.0, 'init_ShelterA_1_144': 1129.0, 'init_ShelterA_1_145': 1131.0, 'init_ShelterA_1_146': 1134.0, 'init_ShelterA_1_148': 1136.0, 'init_ShelterA_1_150': 1139.0, 'init_ShelterA_1_152': 1142.0, 'init_ShelterA_1_153': 1145.0, 'init_ShelterA_1_154': 1148.0, 'init_ShelterA_1_155': 1151.0, 'init_ShelterA_1_157': 1154.0, 'init_ShelterA_1_158': 1175.0, 'init_ShelterA_1_159': 1177.0, 'init_ShelterA_1_162': 1197.0, 'init_ShelterA_1_182': 1200.0, 'init_ShelterA_1_164': 1201.0, 'init_ShelterA_2_208': 1202.0, 'init_ShelterA_1_165': 1203.0, 'init_ShelterA_2_211': 1204.0, 'init_ShelterA_1_166': 1205.0, 'init_ShelterA_1_167': 1224.0, 'init_ShelterA_1_214': 1224.0, 'init_ShelterA_1_169': 1226.0, 'init_ShelterA_2_215': 1226.0, 'init_ShelterA_1_170': 1228.0, 'init_ShelterA_2_216': 1228.0, 'init_ShelterA_1_171': 1230.0, 'init_ShelterA_1_173': 1233.0, 'init_ShelterA_1_174': 1236.0, 'init_ShelterA_1_175': 1280.0, 'init_ShelterA_1_176': 1282.0, 'init_ShelterA_1_177': 1284.0, 'init_ShelterA_1_178': 1291.0, 'init_ShelterA_1_179': 1300.0, 'init_ShelterA_1_180': 1302.0, 'init_ShelterA_1_181': 1313.0, 'init_ShelterA_1_210': 1315.0, 'init_ShelterA_1_212': 1317.0, 'init_ShelterA_1_213': 1319.0, 'init_ShelterA_1_217': 1321.0, 'newveh_ShelterA_1_183_19': 1366.0, 'newveh_ShelterA_2_184_0': 1372.0, 'newveh_ShelterA_1_203_25': 1375.0, 'newveh_ShelterA_2_186_1': 1376.0, 'newveh_ShelterA_1_199_24': 1380.0, 'newveh_ShelterA_1_198_23': 1386.0, 'newveh_ShelterA_1_193_22': 1392.0, 'newveh_ShelterA_2_187_2': 1393.0, 'newveh_ShelterA_1_192_21': 1398.0, 'newveh_ShelterA_2_188_3': 1401.0, 'newveh_ShelterA_1_185_20': 1405.0, 'newveh_ShelterA_2_189_4': 1407.0, 'init_ShelterA_1_222': 1412.0, 'newveh_ShelterA_2_190_5': 1412.0, 'newveh_ShelterA_2_194_7': 1419.0, 'init_ShelterA_1_223': 1420.0, 'newveh_ShelterA_2_191_6': 1425.0, 'init_ShelterA_1_224': 1429.0, 'newveh_ShelterA_2_195_8': 1432.0, 'init_ShelterA_1_225': 1437.0, 'newveh_ShelterA_2_196_9': 1440.0, 'init_ShelterA_1_226': 1443.0, 'init_ShelterA_1_227': 1449.0, 'newveh_ShelterA_2_201_12': 1449.0, 'init_ShelterA_1_229': 1453.0, 'init_ShelterA_1_232': 1458.0, 'newveh_ShelterA_2_200_11': 1458.0, 'newveh_ShelterA_2_197_10': 1466.0, 'init_ShelterA_1_241': 1470.0, 'newveh_ShelterA_2_204_14': 1472.0, 'newveh_ShelterA_2_202_13': 1477.0, 'init_ShelterA_1_246': 1479.0, 'newveh_ShelterA_2_205_15': 1481.0, 'init_ShelterA_1_248': 1486.0, 'newveh_ShelterA_2_206_16': 1488.0, 'init_ShelterA_1_250': 1491.0, 'newveh_ShelterA_2_207_17': 1492.0, 'newveh_ShelterA_1_220_26': 1495.0, 'newveh_ShelterA_2_209_18': 1503.0, 'init_ShelterA_1_230': 1505.0, 'init_ShelterA_1_233': 1537.0, 'init_ShelterA_1_234': 1539.0, 'init_ShelterA_1_235': 1550.0, 'init_ShelterA_1_242': 1552.0, 'init_ShelterA_1_243': 1554.0, 'init_ShelterA_1_244': 1556.0, 'init_ShelterA_1_245': 1558.0, 'init_ShelterA_1_268': 1567.0, 'init_ShelterA_1_269': 1573.0, 'init_ShelterA_1_270': 1579.0, 'init_ShelterA_1_252': 1580.0, 'newveh_ShelterA_1_240_36': 1584.0, 'init_ShelterA_1_271': 1591.0, 'init_ShelterA_1_272': 1597.0, 'newveh_ShelterA_2_218_27': 1599.0, 'init_ShelterA_1_273': 1602.0, 'init_ShelterA_1_276': 1606.0, 'init_ShelterA_1_286': 1650.0, 'init_ShelterA_1_288': 1654.0, 'newveh_ShelterA_2_236_32': 1657.0, 'newveh_ShelterA_2_231_31': 1664.0, 'newveh_ShelterA_2_228_30': 1670.0, 'newveh_ShelterA_2_221_29': 1676.0, 'newveh_ShelterA_2_239_35': 1682.0, 'newveh_ShelterA_2_238_34': 1688.0, 'newveh_ShelterA_2_219_28': 1695.0, 'newveh_ShelterA_2_237_33': 1707.0, 'init_ShelterA_1_274': 1709.0, 'init_ShelterA_1_275': 1711.0, 'init_ShelterA_1_277': 1713.0, 'init_ShelterA_1_278': 1715.0, 'init_ShelterA_1_279': 1718.0, 'init_ShelterA_2_293': 1719.0, 'init_ShelterA_1_280': 1723.0, 'init_ShelterA_1_281': 1725.0, 'init_ShelterA_1_282': 1727.0, 'init_ShelterA_1_283': 1730.0, 'init_ShelterA_1_284': 1733.0, 'init_ShelterA_1_287': 1735.0, 'init_ShelterA_1_294': 1739.0, 'init_ShelterA_1_297': 1749.0, 'init_ShelterA_1_299': 1761.0, 'newveh_ShelterA_2_249_37': 1764.0, 'newveh_ShelterA_2_260_38': 1779.0, 'newveh_ShelterA_2_247_39': 1784.0, 'newveh_ShelterA_2_263_43': 1793.0, 'newveh_ShelterA_2_262_42': 1802.0, 'newveh_ShelterA_2_261_41': 1807.0, 'newveh_ShelterA_2_266_46': 1811.0, 'newveh_ShelterA_2_296_84': 1820.0, 'init_ShelterA_1_306': 1823.0, 'newveh_ShelterA_2_302_85': 1825.0, 'init_ShelterA_1_307': 1828.0, 'newveh_ShelterA_2_265_45': 1830.0, 'init_ShelterA_1_316': 1832.0, 'newveh_ShelterA_2_267_47': 1834.0, 'newveh_ShelterA_2_251_40': 1839.0, 'init_ShelterA_1_324': 1843.0, 'init_ShelterA_1_292': 1848.0, 'init_ShelterA_1_326': 1851.0, 'init_ShelterA_1_327': 1855.0, 'init_ShelterA_1_330': 1859.0, 'newveh_ShelterA_2_253_44': 1867.0, 'init_ShelterA_1_295': 1869.0, 'newveh_ShelterA_2_255_49': 1878.0, 'newveh_ShelterA_2_254_48': 1884.0, 'newveh_ShelterA_2_256_50': 1891.0, 'newveh_ShelterA_2_257_51': 1898.0, 'init_ShelterA_1_333': 1900.0, 'newveh_ShelterA_2_258_52': 1905.0, 'init_ShelterA_1_336': 1909.0, 'init_ShelterA_1_337': 1914.0, 'newveh_ShelterA_2_264_54': 1914.0, 'newveh_ShelterA_2_259_53': 1922.0, 'init_ShelterA_1_338': 1926.0, 'newveh_ShelterA_2_325_100': 1931.0, 'newveh_ShelterA_1_290_56': 1933.0, 'init_ShelterA_1_342': 1939.0, 'newveh_ShelterA_2_331_102': 1940.0, 'init_ShelterA_1_344': 1944.0, 'init_ShelterA_1_351': 1951.0, 'init_ShelterA_1_353': 1958.0, 'newveh_ShelterA_2_323_101': 1962.0, 'init_ShelterA_1_354': 1964.0, 'init_ShelterA_1_301': 1965.0, 'init_ShelterA_1_303': 1967.0, 'init_ShelterA_1_304': 1969.0, 'init_ShelterA_1_355': 1969.0, 'init_ShelterA_1_305': 1971.0, 'init_ShelterA_1_308': 1973.0, 'init_ShelterA_1_357': 1973.0, 'init_ShelterA_1_312': 1975.0, 'init_ShelterA_1_314': 1978.0, 'newveh_ShelterA_2_285_55': 1992.0, 'init_ShelterA_1_361': 1993.0, 'init_ShelterA_1_328': 1994.0, 'init_ShelterA_1_329': 1996.0, 'init_ShelterA_1_332': 1998.0, 'init_ShelterA_1_363': 1998.0, 'newveh_ShelterA_2_347_108': 2007.0, 'init_ShelterA_1_334': 2009.0, 'init_ShelterA_1_335': 2011.0, 'init_ShelterA_1_343': 2013.0, 'newveh_ShelterA_1_315_65': 2014.0, 'newveh_ShelterA_1_313_64': 2031.0, 'newveh_ShelterA_2_289_57': 2031.0, 'init_ShelterA_1_380': 2038.0, 'newveh_ShelterA_2_291_58': 2038.0, 'newveh_ShelterA_2_346_107': 2042.0, 'init_ShelterA_1_381': 2045.0, 'init_ShelterA_1_382': 2049.0, 'init_ShelterA_1_383': 2054.0, 'init_ShelterA_1_385': 2090.0, 'init_ShelterA_1_386': 2097.0, 'init_ShelterA_2_387': 2099.0, 'init_ShelterA_2_388': 2102.0, 'init_ShelterA_1_362': 2105.0, 'init_ShelterA_1_364': 2107.0, 'init_ShelterA_1_365': 2109.0, 'init_ShelterA_1_389': 2110.0, 'init_ShelterA_1_390': 2115.0, 'init_ShelterA_1_391': 2122.0, 'init_ShelterA_1_392': 2128.0, 'newveh_ShelterA_2_311_63': 2128.0, 'init_ShelterA_1_393': 2133.0, 'init_ShelterA_1_395': 2137.0, 'newveh_ShelterA_2_310_62': 2137.0, 'newveh_ShelterA_2_309_61': 2141.0, 'newveh_ShelterA_2_300_60': 2146.0, 'newveh_ShelterA_2_298_59': 2150.0, 'init_ShelterA_1_384': 2177.0, 'init_ShelterA_1_397': 2181.0, 'newveh_ShelterA_1_339_72': 2189.0, 'newveh_ShelterA_1_352_75': 2193.0, 'newveh_ShelterA_1_356_80': 2198.0, 'newveh_ShelterA_1_367_86': 2205.0, 'newveh_ShelterA_2_317_66': 2205.0, 'newveh_ShelterA_1_375_93': 2210.0, 'newveh_ShelterA_2_318_67': 2212.0, 'newveh_ShelterA_2_319_68': 2220.0, 'newveh_ShelterA_2_320_69': 2225.0, 'newveh_ShelterA_2_321_70': 2230.0, 'newveh_ShelterA_2_322_71': 2236.0, 'newveh_ShelterA_2_340_76': 2286.0, 'newveh_ShelterA_1_396_103': 2287.0, 'newveh_ShelterA_2_345_74': 2294.0, 'newveh_ShelterA_2_349_78': 2299.0, 'newveh_ShelterA_2_348_77': 2304.0, 'newveh_ShelterA_2_341_73': 2311.0, 'newveh_ShelterA_2_350_79': 2316.0, 'newveh_ShelterA_2_359_82': 2321.0, 'newveh_ShelterA_2_358_81': 2327.0, 'newveh_ShelterA_2_360_83': 2335.0, 'newveh_ShelterA_2_366_87': 2340.0, 'newveh_ShelterA_2_372_92': 2344.0, 'newveh_ShelterA_2_371_91': 2368.0, 'newveh_ShelterA_2_370_90': 2376.0, 'newveh_ShelterA_2_369_89': 2381.0, 'newveh_ShelterA_2_368_88': 2387.0, 'newveh_ShelterA_2_377_94': 2393.0, 'newveh_ShelterA_2_376_97': 2399.0, 'newveh_ShelterA_2_374_96': 2407.0, 'newveh_ShelterA_2_373_95': 2414.0, 'newveh_ShelterA_2_378_98': 2419.0, 'newveh_ShelterA_2_379_99': 2423.0, 'newveh_ShelterA_2_399_106': 2435.0, 'newveh_ShelterA_2_398_105': 2441.0, 'newveh_ShelterA_2_394_104': 2445.0}
vehicle_abandant_time_by_pedestrianID_dict:{}
walking_distance_by_pedestrianID_dict:{}
route_change_time_by_vehID_dict:{'init_ShelterA_2_59': 430.0, 'init_ShelterA_1_67': 460.0, 'init_ShelterA_1_69': 460.0, 'init_ShelterA_1_70': 460.0, 'init_ShelterA_1_65': 470.0, 'init_ShelterA_1_66': 470.0, 'init_ShelterA_1_68': 470.0, 'init_ShelterA_1_61': 480.0, 'init_ShelterA_1_63': 480.0, 'init_ShelterA_1_60': 490.0, 'init_ShelterA_1_71': 500.0, 'init_ShelterA_1_72': 510.0, 'init_ShelterA_1_74': 510.0, 'init_ShelterA_1_75': 510.0, 'init_ShelterA_1_78': 510.0, 'init_ShelterA_1_73': 520.0, 'init_ShelterA_1_79': 520.0, 'init_ShelterA_1_80': 520.0, 'init_ShelterA_1_83': 520.0, 'init_ShelterA_1_84': 520.0, 'init_ShelterA_2_81': 520.0, 'init_ShelterA_2_85': 520.0, 'init_ShelterA_2_86': 520.0, 'init_ShelterA_2_99': 610.0, 'init_ShelterA_1_100': 620.0, 'init_ShelterA_1_97': 620.0, 'init_ShelterA_1_101': 640.0, 'init_ShelterA_1_102': 640.0, 'init_ShelterA_1_103': 640.0, 'init_ShelterA_1_104': 640.0, 'init_ShelterA_1_105': 660.0, 'init_ShelterA_1_106': 670.0, 'init_ShelterA_1_107': 670.0, 'init_ShelterA_1_108': 670.0, 'init_ShelterA_2_113': 700.0, 'init_ShelterA_1_114': 710.0, 'init_ShelterA_1_110': 720.0, 'init_ShelterA_1_109': 730.0, 'init_ShelterA_1_117': 730.0, 'init_ShelterA_1_120': 730.0, 'init_ShelterA_1_121': 730.0, 'init_ShelterA_1_115': 740.0, 'init_ShelterA_1_118': 740.0, 'init_ShelterA_1_119': 740.0, 'init_ShelterA_1_124': 750.0, 'init_ShelterA_1_122': 760.0, 'init_ShelterA_1_128': 760.0, 'init_ShelterA_1_129': 760.0, 'init_ShelterA_2_130': 760.0, 'init_ShelterA_1_126': 770.0, 'init_ShelterA_2_137': 770.0, 'init_ShelterA_2_139': 770.0, 'init_ShelterA_1_131': 780.0, 'init_ShelterA_1_133': 780.0, 'init_ShelterA_1_134': 780.0, 'init_ShelterA_1_135': 780.0, 'init_ShelterA_1_136': 780.0, 'init_ShelterA_1_140': 780.0, 'init_ShelterA_1_184': 810.0, 'init_ShelterA_1_186': 810.0, 'init_ShelterA_1_187': 810.0, 'init_ShelterA_1_188': 810.0, 'init_ShelterA_1_189': 810.0, 'init_ShelterA_1_190': 810.0, 'init_ShelterA_1_191': 810.0, 'init_ShelterA_1_194': 810.0, 'init_ShelterA_1_195': 810.0, 'init_ShelterA_1_196': 810.0, 'init_ShelterA_1_197': 810.0, 'init_ShelterA_1_200': 810.0, 'init_ShelterA_1_201': 810.0, 'init_ShelterA_1_202': 810.0, 'init_ShelterA_1_204': 810.0, 'init_ShelterA_1_205': 810.0, 'init_ShelterA_1_206': 810.0, 'init_ShelterA_1_207': 810.0, 'init_ShelterA_1_209': 810.0, 'init_ShelterA_2_149': 810.0, 'init_ShelterA_2_183': 810.0, 'init_ShelterA_2_185': 810.0, 'init_ShelterA_2_192': 810.0, 'init_ShelterA_2_193': 810.0, 'init_ShelterA_2_198': 810.0, 'init_ShelterA_2_199': 810.0, 'init_ShelterA_2_203': 810.0, 'init_ShelterA_1_127': 820.0, 'init_ShelterA_1_125': 830.0, 'init_ShelterA_1_142': 830.0, 'init_ShelterA_1_143': 850.0, 'init_ShelterA_1_145': 850.0, 'init_ShelterA_1_144': 860.0, 'init_ShelterA_1_148': 860.0, 'init_ShelterA_1_154': 860.0, 'init_ShelterA_2_151': 860.0, 'init_ShelterA_2_156': 870.0, 'init_ShelterA_1_146': 910.0, 'init_ShelterA_1_141': 920.0, 'init_ShelterA_1_159': 920.0, 'init_ShelterA_2_160': 920.0, 'init_ShelterA_2_161': 920.0, 'init_ShelterA_1_157': 930.0, 'init_ShelterA_1_158': 930.0, 'init_ShelterA_1_162': 930.0, 'init_ShelterA_1_153': 940.0, 'init_ShelterA_1_155': 940.0, 'init_ShelterA_1_164': 940.0, 'init_ShelterA_1_165': 940.0, 'init_ShelterA_1_166': 940.0, 'init_ShelterA_1_169': 940.0, 'init_ShelterA_2_172': 940.0, 'init_ShelterA_1_150': 950.0, 'init_ShelterA_1_152': 950.0, 'init_ShelterA_1_167': 950.0, 'init_ShelterA_1_173': 950.0, 'init_ShelterA_1_170': 960.0, 'init_ShelterA_1_171': 960.0, 'init_ShelterA_1_174': 960.0, 'init_ShelterA_1_175': 960.0, 'init_ShelterA_2_220': 960.0, 'init_ShelterA_1_218': 980.0, 'init_ShelterA_1_219': 980.0, 'init_ShelterA_1_221': 980.0, 'init_ShelterA_1_228': 980.0, 'init_ShelterA_1_231': 980.0, 'init_ShelterA_1_236': 980.0, 'init_ShelterA_1_176': 990.0, 'init_ShelterA_1_177': 990.0, 'init_ShelterA_1_237': 990.0, 'init_ShelterA_1_238': 990.0, 'init_ShelterA_1_239': 990.0, 'init_ShelterA_2_240': 990.0, 'init_ShelterA_1_179': 1010.0, 'init_ShelterA_1_178': 1020.0, 'init_ShelterA_1_180': 1020.0, 'init_ShelterA_1_181': 1020.0, 'init_ShelterA_1_210': 1020.0, 'init_ShelterA_2_208': 1020.0, 'init_ShelterA_2_211': 1020.0, 'init_ShelterA_1_212': 1030.0, 'init_ShelterA_1_213': 1030.0, 'init_ShelterA_1_217': 1030.0, 'init_ShelterA_2_215': 1030.0, 'init_ShelterA_2_216': 1030.0, 'init_ShelterA_1_249': 1050.0, 'init_ShelterA_1_260': 1050.0, 'init_ShelterA_1_247': 1060.0, 'init_ShelterA_1_251': 1060.0, 'init_ShelterA_1_261': 1060.0, 'init_ShelterA_1_262': 1060.0, 'init_ShelterA_1_263': 1060.0, 'init_ShelterA_1_253': 1070.0, 'init_ShelterA_1_265': 1070.0, 'init_ShelterA_1_266': 1070.0, 'init_ShelterA_1_267': 1070.0, 'init_ShelterA_1_254': 1080.0, 'init_ShelterA_1_255': 1080.0, 'init_ShelterA_1_256': 1080.0, 'init_ShelterA_1_257': 1080.0, 'init_ShelterA_1_258': 1080.0, 'init_ShelterA_1_259': 1080.0, 'init_ShelterA_1_264': 1080.0, 'init_ShelterA_1_285': 1160.0, 'init_ShelterA_2_290': 1220.0, 'init_ShelterA_1_289': 1230.0, 'init_ShelterA_1_291': 1230.0, 'init_ShelterA_1_243': 1290.0, 'init_ShelterA_1_245': 1290.0, 'init_ShelterA_1_235': 1300.0, 'init_ShelterA_1_242': 1300.0, 'init_ShelterA_1_244': 1300.0, 'init_ShelterA_1_252': 1300.0, 'init_ShelterA_1_230': 1310.0, 'init_ShelterA_1_233': 1310.0, 'init_ShelterA_1_234': 1310.0, 'init_ShelterA_1_298': 1320.0, 'init_ShelterA_1_300': 1320.0, 'init_ShelterA_1_309': 1330.0, 'init_ShelterA_1_310': 1330.0, 'init_ShelterA_1_311': 1330.0, 'init_ShelterA_2_313': 1340.0, 'init_ShelterA_2_315': 1340.0, 'init_ShelterA_1_317': 1380.0, 'init_ShelterA_1_318': 1380.0, 'init_ShelterA_1_319': 1380.0, 'init_ShelterA_1_320': 1380.0, 'init_ShelterA_1_321': 1380.0, 'init_ShelterA_1_322': 1380.0, 'init_ShelterA_1_277': 1460.0, 'init_ShelterA_1_278': 1460.0, 'init_ShelterA_1_279': 1460.0, 'init_ShelterA_1_280': 1460.0, 'init_ShelterA_1_281': 1460.0, 'init_ShelterA_1_282': 1460.0, 'init_ShelterA_1_283': 1460.0, 'init_ShelterA_1_284': 1460.0, 'init_ShelterA_1_274': 1470.0, 'init_ShelterA_1_275': 1470.0, 'init_ShelterA_2_339': 1470.0, 'init_ShelterA_1_341': 1480.0, 'init_ShelterA_1_345': 1480.0, 'init_ShelterA_2_352': 1480.0, 'init_ShelterA_1_340': 1490.0, 'init_ShelterA_1_348': 1490.0, 'init_ShelterA_1_349': 1490.0, 'init_ShelterA_1_350': 1490.0, 'init_ShelterA_2_356': 1490.0, 'init_ShelterA_1_358': 1500.0, 'init_ShelterA_1_359': 1500.0, 'init_ShelterA_1_360': 1500.0, 'init_ShelterA_2_293': 1520.0, 'init_ShelterA_1_292': 1530.0, 'init_ShelterA_1_295': 1530.0, 'init_ShelterA_1_296': 1530.0, 'init_ShelterA_1_287': 1540.0, 'init_ShelterA_1_302': 1540.0, 'init_ShelterA_2_367': 1540.0, 'init_ShelterA_1_305': 1560.0, 'init_ShelterA_1_312': 1560.0, 'init_ShelterA_1_366': 1560.0, 'init_ShelterA_1_368': 1560.0, 'init_ShelterA_1_369': 1560.0, 'init_ShelterA_1_370': 1560.0, 'init_ShelterA_1_371': 1560.0, 'init_ShelterA_1_372': 1560.0, 'init_ShelterA_2_375': 1560.0, 'init_ShelterA_1_328': 1570.0, 'init_ShelterA_1_329': 1570.0, 'init_ShelterA_1_377': 1580.0, 'init_ShelterA_1_308': 1590.0, 'init_ShelterA_1_314': 1590.0, 'init_ShelterA_1_373': 1590.0, 'init_ShelterA_1_374': 1590.0, 'init_ShelterA_1_376': 1590.0, 'init_ShelterA_1_378': 1590.0, 'init_ShelterA_1_379': 1590.0, 'init_ShelterA_1_301': 1600.0, 'init_ShelterA_1_304': 1600.0, 'init_ShelterA_1_303': 1610.0, 'init_ShelterA_1_325': 1610.0, 'init_ShelterA_1_323': 1620.0, 'init_ShelterA_1_331': 1620.0, 'init_ShelterA_1_332': 1630.0, 'init_ShelterA_1_343': 1650.0, 'init_ShelterA_2_396': 1660.0, 'init_ShelterA_1_394': 1670.0, 'init_ShelterA_1_398': 1670.0, 'init_ShelterA_1_399': 1670.0, 'init_ShelterA_1_335': 1700.0, 'init_ShelterA_1_346': 1700.0, 'init_ShelterA_1_347': 1700.0, 'init_ShelterA_1_334': 1710.0, 'init_ShelterA_1_365': 1730.0, 'init_ShelterA_1_384': 1740.0, 'init_ShelterA_1_362': 1770.0, 'init_ShelterA_1_364': 1770.0, 'init_ShelterA_2_387': 1860.0, 'init_ShelterA_2_388': 1870.0}
pedestrian_count:0
route_changed_vehicle_count:257
route_change_event_count:257
rate_vehicle_abandonment:0.00%
wrong_way_driving_count:0
vehicle_abandonment_count:0
normalcy_bias_route_change_count:131
majority_bias_route_change_count:126
lane_changed_vehicle_count:0
info_obtained_lanechange_count:0
elapsed_time_lanechange_count:0
majority_bias_lanechange_count:0

=== Job Result ===
end=2026-07-13T02:55:40+0900
elapsed_seconds=445
exit_code=0
status=SUCCESS
