=== Job Info ===
job_name=va_s3_e1.0_v1.0_r48
host=schubert
pid=112085
scenario=3
early_rate=1.0
v2v_rate=1.0
run_id=48
config=/home/katagi/vehicle-assistant-system/scenarios/JIP/configs/config_scenario_3.toml
output_dir=/home/katagi/vehicle-assistant-system/schubert_logs/va_s3_e1.0_v1.0_r48
start=2026-07-13T01:07:29+0900
python_version=Python 3.12.3
sumo_version=Eclipse SUMO sumo Version v1_23_1+0435-630512a

=== Command ===
cd /home/katagi/vehicle-assistant-system/schubert_logs/va_s3_e1.0_v1.0_r48
PYTHONPATH=/home/katagi/vehicle-assistant-system:/home/katagi/tmp/sumo/tools:/home/katagi/local/sumo/tools:/home/katagi/tmp/sumo/tools:/home/katagi/local/sumo/tools:/home/katagi/tmp/sumo/tools:/home/katagi/local/sumo/tools: python3 -W ignore::UserWarning -m scenarios.JIP.1-1-4.simulation.runner_simulator --nogui /home/katagi/vehicle-assistant-system/scenarios/JIP/configs/config_scenario_3.toml 1.0 1.0
simulation_pid=112105
Step #0.00 (0ms ?*RT. ?UPS, TraCI: 335ms, vehicles TOT 1 ACT 1 BUF 0)                     Step #100.00 (0ms ?*RT. ?UPS, TraCI: 18ms, vehicles TOT 26 ACT 26 BUF 0)                  Step #200.00 (1ms ~= 1000.00*RT, ~51000.00UPS, TraCI: 37ms, vehicles TOT 51 ACT 51 BUF 0) Step #300.00 (0ms ?*RT. ?UPS, TraCI: 54ms, vehicles TOT 77 ACT 77 BUF 0)                  Step #400.00 (1ms ~= 1000.00*RT, ~104000.00UPS, TraCI: 71ms, vehicles TOT 104 ACT 104 BUF Step #500.00 (1ms ~= 1000.00*RT, ~131000.00UPS, TraCI: 804ms, vehicles TOT 131 ACT 131 BUFStep #600.00 (0ms ?*RT. ?UPS, TraCI: 1689ms, vehicles TOT 158 ACT 158 BUF 0)              Step #700.00 (1ms ~= 1000.00*RT, ~186000.00UPS, TraCI: 1627ms, vehicles TOT 186 ACT 186 BUStep #800.00 (1ms ~= 1000.00*RT, ~209000.00UPS, TraCI: 1039ms, vehicles TOT 209 ACT 209 BUStep #900.00 (1ms ~= 1000.00*RT, ~232000.00UPS, TraCI: 2018ms, vehicles TOT 232 ACT 232 BUStep #1000.00 (0ms ?*RT. ?UPS, TraCI: 2477ms, vehicles TOT 256 ACT 228 BUF 46)            Step #1100.00 (1ms ~= 1000.00*RT, ~256000.00UPS, TraCI: 1908ms, vehicles TOT 287 ACT 256 BStep #1200.00 (1ms ~= 1000.00*RT, ~275000.00UPS, TraCI: 2343ms, vehicles TOT 307 ACT 275 BStep #1300.00 (0ms ?*RT. ?UPS, TraCI: 1721ms, vehicles TOT 343 ACT 305 BUF 63)            Step #1400.00 (1ms ~= 1000.00*RT, ~320000.00UPS, TraCI: 2350ms, vehicles TOT 373 ACT 320 BStep #1500.00 (1ms ~= 1000.00*RT, ~337000.00UPS, TraCI: 2294ms, vehicles TOT 403 ACT 337 BStep #1600.00 (1ms ~= 1000.00*RT, ~358000.00UPS, TraCI: 3138ms, vehicles TOT 427 ACT 358 BStep #1700.00 (1ms ~= 1000.00*RT, ~386000.00UPS, TraCI: 1521ms, vehicles TOT 475 ACT 386 BStep #1800.00 (1ms ~= 1000.00*RT, ~400000.00UPS, TraCI: 1540ms, vehicles TOT 489 ACT 400 BStep #1900.00 (0ms ?*RT. ?UPS, TraCI: 1363ms, vehicles TOT 489 ACT 400 BUF 0)             Step #2000.00 (0ms ?*RT. ?UPS, TraCI: 992ms, vehicles TOT 489 ACT 400 BUF 0)              Step #2100.00 (0ms ?*RT. ?UPS, TraCI: 564ms, vehicles TOT 489 ACT 400 BUF 0)              Step #2200.00 (0ms ?*RT. ?UPS, TraCI: 94ms, vehicles TOT 489 ACT 400 BUF 0)               Step #2300.00 (1ms ~= 1000.00*RT, ~400000.00UPS, TraCI: 94ms, vehicles TOT 489 ACT 400 BUFStep #2400.00 (0ms ?*RT. ?UPS, TraCI: 81ms, vehicles TOT 489 ACT 400 BUF 0)               Step #2500.00 (0ms ?*RT. ?UPS, TraCI: 55ms, vehicles TOT 489 ACT 400 BUF 0)               Step #2600.00 (0ms ?*RT. ?UPS, TraCI: 78ms, vehicles TOT 489 ACT 400 BUF 0)               Step #2700.00 (0ms ?*RT. ?UPS, TraCI: 78ms, vehicles TOT 489 ACT 400 BUF 0)               Step #2800.00 (0ms ?*RT. ?UPS, TraCI: 78ms, vehicles TOT 489 ACT 400 BUF 0)               Step #2900.00 (0ms ?*RT. ?UPS, TraCI: 77ms, vehicles TOT 489 ACT 400 BUF 0)               Step #3000.00 (0ms ?*RT. ?UPS, TraCI: 78ms, vehicles TOT 489 ACT 400 BUF 0)               
 Retrying in 1 seconds
出現数: {'A1': 359, 'A2': 41}
割合:
  Total: 400
  A1: 359 (89.75%)
  A2: 41 (10.25%)
  B1: 0 (0.00%)
  B2: 0 (0.00%)
mean elapsed_time: 537.54
OK all vehs arrived 
平均渋滞継続時間: 421.47秒
OK all vehicle abandonment were detected
294
106
===== Simlation Result Summary =====
avg_congestion_duration: 421.47 
arrival_time_by_vehID_dict:{'init_ShelterA_1_0': 212.0, 'init_ShelterA_1_1': 219.0, 'init_ShelterA_1_2': 224.0, 'init_ShelterA_1_3': 230.0, 'init_ShelterA_1_4': 236.0, 'init_ShelterA_1_5': 243.0, 'init_ShelterA_1_6': 247.0, 'init_ShelterA_1_7': 252.0, 'init_ShelterA_1_8': 283.0, 'init_ShelterA_1_9': 288.0, 'init_ShelterA_1_10': 300.0, 'init_ShelterA_1_11': 307.0, 'init_ShelterA_1_12': 313.0, 'init_ShelterA_1_13': 319.0, 'init_ShelterA_1_14': 326.0, 'init_ShelterA_1_15': 333.0, 'init_ShelterA_1_16': 341.0, 'init_ShelterA_1_17': 350.0, 'init_ShelterA_1_18': 359.0, 'init_ShelterA_1_19': 368.0, 'init_ShelterA_1_20': 377.0, 'init_ShelterA_1_21': 386.0, 'init_ShelterA_1_22': 396.0, 'init_ShelterA_1_23': 406.0, 'init_ShelterA_1_24': 415.0, 'init_ShelterA_1_25': 425.0, 'init_ShelterA_1_26': 434.0, 'init_ShelterA_1_27': 444.0, 'init_ShelterA_1_28': 454.0, 'init_ShelterA_1_29': 463.0, 'init_ShelterA_1_30': 473.0, 'init_ShelterA_2_31': 473.0, 'init_ShelterA_1_32': 483.0, 'init_ShelterA_1_33': 492.0, 'init_ShelterA_2_37': 501.0, 'init_ShelterA_1_34': 502.0, 'init_ShelterA_2_39': 510.0, 'init_ShelterA_1_35': 512.0, 'init_ShelterA_1_36': 521.0, 'init_ShelterA_1_38': 531.0, 'init_ShelterA_1_40': 540.0, 'init_ShelterA_1_41': 550.0, 'init_ShelterA_1_43': 559.0, 'init_ShelterA_1_44': 569.0, 'init_ShelterA_1_45': 579.0, 'init_ShelterA_1_46': 588.0, 'init_ShelterA_2_42': 591.0, 'init_ShelterA_2_52': 597.0, 'init_ShelterA_1_47': 598.0, 'init_ShelterA_2_57': 604.0, 'init_ShelterA_1_48': 607.0, 'init_ShelterA_1_49': 617.0, 'init_ShelterA_1_50': 626.0, 'init_ShelterA_1_51': 636.0, 'init_ShelterA_1_53': 645.0, 'init_ShelterA_1_54': 654.0, 'init_ShelterA_1_55': 664.0, 'init_ShelterA_1_56': 673.0, 'init_ShelterA_1_58': 682.0, 'init_ShelterA_1_59': 692.0, 'init_ShelterA_1_60': 701.0, 'init_ShelterA_1_61': 710.0, 'init_ShelterA_1_62': 719.0, 'init_ShelterA_1_63': 728.0, 'init_ShelterA_1_64': 737.0, 'init_ShelterA_2_65': 739.0, 'init_ShelterA_1_66': 749.0, 'init_ShelterA_1_67': 759.0, 'init_ShelterA_1_78': 763.0, 'init_ShelterA_1_79': 765.0, 'init_ShelterA_1_68': 768.0, 'init_ShelterA_1_80': 769.0, 'init_ShelterA_1_82': 771.0, 'init_ShelterA_1_83': 774.0, 'init_ShelterA_1_69': 777.0, 'init_ShelterA_1_84': 777.0, 'init_ShelterA_1_85': 780.0, 'init_ShelterA_1_87': 783.0, 'init_ShelterA_1_89': 786.0, 'init_ShelterA_1_70': 787.0, 'init_ShelterA_1_90': 789.0, 'init_ShelterA_1_91': 792.0, 'init_ShelterA_1_71': 796.0, 'init_ShelterA_1_72': 805.0, 'init_ShelterA_1_93': 813.0, 'init_ShelterA_1_73': 814.0, 'init_ShelterA_1_74': 823.0, 'init_ShelterA_1_75': 832.0, 'init_ShelterA_1_95': 832.0, 'init_ShelterA_1_96': 834.0, 'init_ShelterA_2_76': 834.0, 'init_ShelterA_1_99': 837.0, 'init_ShelterA_1_77': 844.0, 'init_ShelterA_1_81': 853.0, 'init_ShelterA_1_100': 854.0, 'init_ShelterA_2_86': 855.0, 'init_ShelterA_1_101': 856.0, 'init_ShelterA_2_88': 857.0, 'init_ShelterA_1_102': 859.0, 'init_ShelterA_1_106': 864.0, 'init_ShelterA_1_108': 866.0, 'init_ShelterA_1_92': 868.0, 'init_ShelterA_1_109': 874.0, 'init_ShelterA_1_94': 878.0, 'init_ShelterA_1_97': 887.0, 'init_ShelterA_1_98': 897.0, 'init_ShelterA_1_103': 906.0, 'init_ShelterA_1_110': 906.0, 'init_ShelterA_1_111': 908.0, 'init_ShelterA_1_118': 915.0, 'init_ShelterA_1_104': 916.0, 'init_ShelterA_1_119': 917.0, 'init_ShelterA_1_121': 921.0, 'init_ShelterA_1_105': 925.0, 'init_ShelterA_1_107': 935.0, 'init_ShelterA_1_112': 944.0, 'init_ShelterA_1_113': 953.0, 'init_ShelterA_2_114': 956.0, 'init_ShelterA_1_123': 958.0, 'init_ShelterA_1_124': 960.0, 'init_ShelterA_1_126': 963.0, 'init_ShelterA_1_115': 966.0, 'init_ShelterA_1_116': 975.0, 'init_ShelterA_1_117': 985.0, 'init_ShelterA_1_129': 993.0, 'init_ShelterA_1_120': 994.0, 'init_ShelterA_2_122': 996.0, 'init_ShelterA_1_131': 1000.0, 'init_ShelterA_1_133': 1002.0, 'init_ShelterA_1_125': 1007.0, 'init_ShelterA_1_127': 1020.0, 'init_ShelterA_2_128': 1022.0, 'init_ShelterA_2_130': 1024.0, 'init_ShelterA_1_134': 1025.0, 'init_ShelterA_2_132': 1026.0, 'init_ShelterA_1_135': 1027.0, 'init_ShelterA_1_136': 1029.0, 'init_ShelterA_2_139': 1029.0, 'init_ShelterA_1_137': 1031.0, 'init_ShelterA_1_138': 1035.0, 'init_ShelterA_1_144': 1037.0, 'init_ShelterA_1_140': 1038.0, 'init_ShelterA_1_141': 1040.0, 'init_ShelterA_1_142': 1043.0, 'init_ShelterA_1_145': 1046.0, 'init_ShelterA_1_146': 1055.0, 'init_ShelterA_1_147': 1065.0, 'init_ShelterA_1_143': 1071.0, 'init_ShelterA_1_148': 1074.0, 'init_ShelterA_1_152': 1084.0, 'init_ShelterA_2_153': 1086.0, 'init_ShelterA_1_149': 1091.0, 'init_ShelterA_1_154': 1095.0, 'init_ShelterA_1_150': 1102.0, 'init_ShelterA_1_155': 1104.0, 'init_ShelterA_1_151': 1108.0, 'init_ShelterA_1_156': 1109.0, 'init_ShelterA_1_160': 1112.0, 'init_ShelterA_1_161': 1121.0, 'init_ShelterA_1_157': 1123.0, 'init_ShelterA_1_158': 1126.0, 'init_ShelterA_1_159': 1128.0, 'init_ShelterA_1_162': 1130.0, 'init_ShelterA_1_163': 1140.0, 'init_ShelterA_1_165': 1150.0, 'init_ShelterA_1_167': 1160.0, 'init_ShelterA_1_169': 1169.0, 'init_ShelterA_1_164': 1172.0, 'init_ShelterA_1_170': 1177.0, 'init_ShelterA_1_172': 1184.0, 'init_ShelterA_1_174': 1193.0, 'init_ShelterA_1_175': 1202.0, 'init_ShelterA_2_178': 1205.0, 'init_ShelterA_2_179': 1206.0, 'init_ShelterA_1_166': 1208.0, 'init_ShelterA_2_180': 1208.0, 'init_ShelterA_1_168': 1209.0, 'init_ShelterA_1_171': 1212.0, 'init_ShelterA_1_173': 1214.0, 'init_ShelterA_1_176': 1217.0, 'init_ShelterA_1_183': 1218.0, 'init_ShelterA_1_177': 1227.0, 'init_ShelterA_1_185': 1227.0, 'init_ShelterA_1_188': 1237.0, 'init_ShelterA_2_190': 1239.0, 'init_ShelterA_2_191': 1241.0, 'init_ShelterA_1_193': 1248.0, 'init_ShelterA_2_194': 1250.0, 'init_ShelterA_1_195': 1275.0, 'init_ShelterA_1_196': 1282.0, 'init_ShelterA_1_181': 1287.0, 'init_ShelterA_1_199': 1287.0, 'init_ShelterA_1_182': 1288.0, 'init_ShelterA_1_202': 1292.0, 'init_ShelterA_1_204': 1298.0, 'init_ShelterA_1_205': 1303.0, 'init_ShelterA_1_184': 1304.0, 'init_ShelterA_1_186': 1306.0, 'init_ShelterA_1_187': 1308.0, 'init_ShelterA_1_208': 1308.0, 'init_ShelterA_1_189': 1311.0, 'init_ShelterA_1_192': 1313.0, 'init_ShelterA_1_197': 1344.0, 'init_ShelterA_2_215': 1356.0, 'init_ShelterA_1_198': 1381.0, 'init_ShelterA_1_200': 1382.0, 'init_ShelterA_1_216': 1382.0, 'init_ShelterA_1_201': 1385.0, 'init_ShelterA_1_203': 1387.0, 'init_ShelterA_1_217': 1388.0, 'init_ShelterA_1_206': 1390.0, 'init_ShelterA_1_207': 1393.0, 'init_ShelterA_1_218': 1394.0, 'init_ShelterA_1_220': 1399.0, 'init_ShelterA_1_249': 1406.0, 'init_ShelterA_1_209': 1409.0, 'init_ShelterA_1_210': 1411.0, 'init_ShelterA_1_211': 1413.0, 'init_ShelterA_1_251': 1413.0, 'init_ShelterA_1_252': 1420.0, 'init_ShelterA_1_253': 1427.0, 'init_ShelterA_1_255': 1431.0, 'init_ShelterA_1_256': 1436.0, 'init_ShelterA_1_212': 1447.0, 'init_ShelterA_1_213': 1449.0, 'init_ShelterA_1_214': 1454.0, 'init_ShelterA_1_219': 1456.0, 'init_ShelterA_1_260': 1456.0, 'init_ShelterA_1_261': 1461.0, 'init_ShelterA_1_262': 1470.0, 'init_ShelterA_2_263': 1472.0, 'init_ShelterA_1_264': 1477.0, 'init_ShelterA_1_250': 1497.0, 'init_ShelterA_1_254': 1498.0, 'init_ShelterA_1_257': 1533.0, 'init_ShelterA_1_258': 1550.0, 'init_ShelterA_1_259': 1565.0, 'newveh_ShelterA_2_221_0': 1583.0, 'newveh_ShelterA_2_238_15': 1597.0, 'newveh_ShelterA_2_237_14': 1604.0, 'newveh_ShelterA_2_236_13': 1610.0, 'newveh_ShelterA_2_235_12': 1616.0, 'newveh_ShelterA_2_233_11': 1623.0, 'newveh_ShelterA_2_232_10': 1631.0, 'newveh_ShelterA_2_231_9': 1638.0, 'newveh_ShelterA_1_234_27': 1641.0, 'newveh_ShelterA_2_230_8': 1643.0, 'newveh_ShelterA_2_229_7': 1647.0, 'newveh_ShelterA_1_224_26': 1650.0, 'init_ShelterA_1_269': 1655.0, 'init_ShelterA_2_270': 1657.0, 'newveh_ShelterA_2_228_6': 1657.0, 'newveh_ShelterA_2_227_5': 1663.0, 'init_ShelterA_1_271': 1666.0, 'newveh_ShelterA_2_226_4': 1667.0, 'init_ShelterA_2_274': 1668.0, 'newveh_ShelterA_2_225_3': 1675.0, 'init_ShelterA_1_275': 1677.0, 'newveh_ShelterA_2_223_2': 1681.0, 'init_ShelterA_1_276': 1685.0, 'newveh_ShelterA_2_222_1': 1686.0, 'newveh_ShelterA_2_239_16': 1691.0, 'init_ShelterA_1_277': 1693.0, 'init_ShelterA_2_278': 1695.0, 'newveh_ShelterA_2_240_17': 1697.0, 'newveh_ShelterA_2_241_18': 1703.0, 'init_ShelterA_1_279': 1705.0, 'newveh_ShelterA_2_242_19': 1710.0, 'init_ShelterA_1_280': 1711.0, 'init_ShelterA_1_281': 1716.0, 'newveh_ShelterA_2_243_20': 1716.0, 'init_ShelterA_1_282': 1722.0, 'newveh_ShelterA_2_244_21': 1724.0, 'init_ShelterA_1_283': 1727.0, 'init_ShelterA_1_287': 1732.0, 'newveh_ShelterA_2_245_22': 1732.0, 'init_ShelterA_1_288': 1737.0, 'newveh_ShelterA_2_246_23': 1740.0, 'init_ShelterA_1_290': 1743.0, 'newveh_ShelterA_2_247_24': 1746.0, 'init_ShelterA_1_292': 1750.0, 'init_ShelterA_1_294': 1754.0, 'newveh_ShelterA_2_285_55': 1755.0, 'init_ShelterA_1_296': 1759.0, 'newveh_ShelterA_2_248_25': 1766.0, 'init_ShelterA_1_272': 1768.0, 'init_ShelterA_1_273': 1770.0, 'newveh_ShelterA_2_284_54': 1775.0, 'init_ShelterA_1_310': 1817.0, 'newveh_ShelterA_2_295_66': 1822.0, 'init_ShelterA_1_311': 1824.0, 'init_ShelterA_1_312': 1829.0, 'newveh_ShelterA_2_267_30': 1835.0, 'init_ShelterA_1_323': 1836.0, 'init_ShelterA_1_324': 1842.0, 'newveh_ShelterA_2_266_29': 1844.0, 'newveh_ShelterA_1_268_31': 1849.0, 'init_ShelterA_1_329': 1853.0, 'init_ShelterA_1_333': 1857.0, 'newveh_ShelterA_2_265_28': 1863.0, 'init_ShelterA_1_291': 1865.0, 'init_ShelterA_1_293': 1868.0, 'init_ShelterA_1_300': 1870.0, 'init_ShelterA_1_304': 1872.0, 'init_ShelterA_1_306': 1874.0, 'init_ShelterA_1_307': 1877.0, 'init_ShelterA_1_308': 1880.0, 'newveh_ShelterA_2_335_68': 1885.0, 'init_ShelterA_1_346': 1906.0, 'newveh_ShelterA_2_328_67': 1911.0, 'newveh_ShelterA_1_289_33': 1913.0, 'newveh_ShelterA_1_299_34': 1918.0, 'newveh_ShelterA_2_343_72': 1918.0, 'newveh_ShelterA_2_341_71': 1924.0, 'init_ShelterA_1_358': 1925.0, 'init_ShelterA_1_359': 1931.0, 'newveh_ShelterA_2_340_70': 1933.0, 'init_ShelterA_1_361': 1938.0, 'newveh_ShelterA_1_301_35': 1944.0, 'init_ShelterA_1_362': 1949.0, 'newveh_ShelterA_1_303_37': 1953.0, 'newveh_ShelterA_2_327_69': 1953.0, 'init_ShelterA_1_317': 1955.0, 'init_ShelterA_1_319': 1957.0, 'init_ShelterA_1_325': 1959.0, 'init_ShelterA_1_326': 1961.0, 'init_ShelterA_1_330': 1964.0, 'init_ShelterA_1_338': 1966.0, 'init_ShelterA_1_344': 1969.0, 'init_ShelterA_1_345': 1971.0, 'newveh_ShelterA_2_286_32': 1980.0, 'newveh_ShelterA_2_342_75': 1986.0, 'newveh_ShelterA_2_339_74': 1992.0, 'init_ShelterA_1_370': 1997.0, 'newveh_ShelterA_2_334_73': 1997.0, 'init_ShelterA_1_347': 1999.0, 'init_ShelterA_1_352': 2002.0, 'init_ShelterA_1_355': 2004.0, 'init_ShelterA_1_364': 2014.0, 'init_ShelterA_1_371': 2014.0, 'init_ShelterA_1_365': 2016.0, 'init_ShelterA_1_366': 2019.0, 'init_ShelterA_1_367': 2024.0, 'init_ShelterA_1_372': 2030.0, 'init_ShelterA_2_374': 2032.0, 'newveh_ShelterA_2_298_36': 2044.0, 'init_ShelterA_1_368': 2046.0, 'init_ShelterA_1_369': 2057.0, 'init_ShelterA_1_375': 2086.0, 'newveh_ShelterA_2_297_38': 2087.0, 'init_ShelterA_1_376': 2093.0, 'newveh_ShelterA_2_309_41': 2096.0, 'init_ShelterA_1_377': 2099.0, 'init_ShelterA_1_378': 2105.0, 'newveh_ShelterA_2_302_39': 2105.0, 'newveh_ShelterA_2_305_40': 2110.0, 'init_ShelterA_1_380': 2112.0, 'newveh_ShelterA_2_314_42': 2114.0, 'newveh_ShelterA_2_318_45': 2118.0, 'init_ShelterA_1_381': 2119.0, 'init_ShelterA_1_383': 2126.0, 'newveh_ShelterA_2_316_44': 2132.0, 'init_ShelterA_1_385': 2134.0, 'newveh_ShelterA_2_315_43': 2140.0, 'init_ShelterA_1_387': 2143.0, 'newveh_ShelterA_2_322_49': 2147.0, 'init_ShelterA_1_388': 2151.0, 'newveh_ShelterA_2_321_48': 2155.0, 'init_ShelterA_1_389': 2158.0, 'newveh_ShelterA_2_320_47': 2159.0, 'init_ShelterA_1_373': 2161.0, 'newveh_ShelterA_1_336_52': 2162.0, 'newveh_ShelterA_1_332_51': 2166.0, 'newveh_ShelterA_2_313_46': 2180.0, 'newveh_ShelterA_1_363_65': 2191.0, 'newveh_ShelterA_1_384_78': 2209.0, 'newveh_ShelterA_2_349_56': 2213.0, 'newveh_ShelterA_1_379_77': 2214.0, 'newveh_ShelterA_2_337_53': 2222.0, 'newveh_ShelterA_2_331_50': 2227.0, 'init_ShelterA_1_399': 2229.0, 'newveh_ShelterA_2_353_57': 2269.0, 'newveh_ShelterA_2_360_64': 2276.0, 'newveh_ShelterA_2_351_60': 2297.0, 'newveh_ShelterA_2_350_59': 2304.0, 'newveh_ShelterA_2_348_58': 2310.0, 'newveh_ShelterA_2_356_62': 2316.0, 'newveh_ShelterA_2_354_61': 2322.0, 'newveh_ShelterA_2_357_63': 2329.0, 'newveh_ShelterA_2_393_82': 2336.0, 'newveh_ShelterA_2_392_81': 2344.0, 'newveh_ShelterA_2_391_80': 2352.0, 'newveh_ShelterA_2_390_79': 2358.0, 'newveh_ShelterA_2_394_83': 2366.0, 'newveh_ShelterA_2_382_76': 2374.0, 'newveh_ShelterA_2_395_85': 2383.0, 'newveh_ShelterA_2_396_86': 2391.0, 'newveh_ShelterA_2_398_88': 2399.0, 'newveh_ShelterA_2_397_87': 2403.0, 'newveh_ShelterA_2_386_84': 2407.0}
vehicle_abandant_time_by_pedestrianID_dict:{}
walking_distance_by_pedestrianID_dict:{}
route_change_time_by_vehID_dict:{'init_ShelterA_2_65': 510.0, 'init_ShelterA_2_86': 510.0, 'init_ShelterA_1_83': 530.0, 'init_ShelterA_2_76': 540.0, 'init_ShelterA_1_79': 550.0, 'init_ShelterA_1_84': 550.0, 'init_ShelterA_1_87': 550.0, 'init_ShelterA_2_88': 550.0, 'init_ShelterA_1_78': 560.0, 'init_ShelterA_1_82': 560.0, 'init_ShelterA_1_85': 560.0, 'init_ShelterA_1_80': 570.0, 'init_ShelterA_1_89': 570.0, 'init_ShelterA_1_91': 580.0, 'init_ShelterA_1_90': 590.0, 'init_ShelterA_1_93': 590.0, 'init_ShelterA_1_101': 610.0, 'init_ShelterA_1_102': 610.0, 'init_ShelterA_1_96': 610.0, 'init_ShelterA_1_99': 610.0, 'init_ShelterA_1_100': 620.0, 'init_ShelterA_1_95': 640.0, 'init_ShelterA_1_108': 660.0, 'init_ShelterA_1_106': 670.0, 'init_ShelterA_1_109': 670.0, 'init_ShelterA_1_111': 670.0, 'init_ShelterA_1_110': 680.0, 'init_ShelterA_2_114': 690.0, 'init_ShelterA_2_122': 690.0, 'init_ShelterA_1_118': 700.0, 'init_ShelterA_1_121': 700.0, 'init_ShelterA_1_123': 700.0, 'init_ShelterA_1_124': 700.0, 'init_ShelterA_1_119': 710.0, 'init_ShelterA_1_126': 750.0, 'init_ShelterA_1_129': 760.0, 'init_ShelterA_2_128': 770.0, 'init_ShelterA_2_130': 770.0, 'init_ShelterA_2_132': 770.0, 'init_ShelterA_2_139': 770.0, 'init_ShelterA_1_133': 780.0, 'init_ShelterA_1_135': 780.0, 'init_ShelterA_1_137': 780.0, 'init_ShelterA_1_141': 780.0, 'init_ShelterA_1_142': 780.0, 'init_ShelterA_1_134': 790.0, 'init_ShelterA_1_136': 790.0, 'init_ShelterA_1_138': 790.0, 'init_ShelterA_1_140': 790.0, 'init_ShelterA_1_131': 820.0, 'init_ShelterA_1_143': 850.0, 'init_ShelterA_2_153': 860.0, 'init_ShelterA_1_158': 870.0, 'init_ShelterA_1_159': 870.0, 'init_ShelterA_1_157': 880.0, 'init_ShelterA_1_156': 890.0, 'init_ShelterA_1_150': 910.0, 'init_ShelterA_1_151': 920.0, 'init_ShelterA_1_164': 920.0, 'init_ShelterA_1_149': 930.0, 'init_ShelterA_1_166': 930.0, 'init_ShelterA_1_168': 930.0, 'init_ShelterA_1_171': 940.0, 'init_ShelterA_2_178': 960.0, 'init_ShelterA_1_221': 980.0, 'init_ShelterA_1_222': 980.0, 'init_ShelterA_1_223': 980.0, 'init_ShelterA_1_225': 980.0, 'init_ShelterA_1_226': 980.0, 'init_ShelterA_1_227': 980.0, 'init_ShelterA_1_228': 980.0, 'init_ShelterA_1_229': 980.0, 'init_ShelterA_1_230': 980.0, 'init_ShelterA_1_231': 980.0, 'init_ShelterA_1_232': 980.0, 'init_ShelterA_1_233': 980.0, 'init_ShelterA_1_235': 980.0, 'init_ShelterA_1_236': 980.0, 'init_ShelterA_1_237': 980.0, 'init_ShelterA_1_238': 980.0, 'init_ShelterA_1_239': 980.0, 'init_ShelterA_1_240': 980.0, 'init_ShelterA_1_241': 980.0, 'init_ShelterA_1_242': 980.0, 'init_ShelterA_1_243': 980.0, 'init_ShelterA_1_244': 980.0, 'init_ShelterA_1_245': 980.0, 'init_ShelterA_1_246': 980.0, 'init_ShelterA_1_247': 980.0, 'init_ShelterA_1_248': 980.0, 'init_ShelterA_2_224': 980.0, 'init_ShelterA_2_234': 980.0, 'init_ShelterA_2_194': 990.0, 'init_ShelterA_1_176': 1010.0, 'init_ShelterA_1_177': 1010.0, 'init_ShelterA_2_180': 1010.0, 'init_ShelterA_1_182': 1020.0, 'init_ShelterA_1_184': 1020.0, 'init_ShelterA_1_187': 1020.0, 'init_ShelterA_2_179': 1020.0, 'init_ShelterA_2_190': 1020.0, 'init_ShelterA_1_173': 1030.0, 'init_ShelterA_1_181': 1030.0, 'init_ShelterA_1_186': 1030.0, 'init_ShelterA_2_191': 1030.0, 'init_ShelterA_1_189': 1040.0, 'init_ShelterA_1_265': 1050.0, 'init_ShelterA_1_266': 1050.0, 'init_ShelterA_1_267': 1050.0, 'init_ShelterA_1_198': 1110.0, 'init_ShelterA_1_201': 1110.0, 'init_ShelterA_1_203': 1110.0, 'init_ShelterA_1_206': 1110.0, 'init_ShelterA_1_192': 1120.0, 'init_ShelterA_1_197': 1120.0, 'init_ShelterA_1_210': 1120.0, 'init_ShelterA_1_211': 1120.0, 'init_ShelterA_2_215': 1150.0, 'init_ShelterA_1_209': 1160.0, 'init_ShelterA_1_214': 1160.0, 'init_ShelterA_1_219': 1170.0, 'init_ShelterA_2_268': 1170.0, 'init_ShelterA_1_200': 1180.0, 'init_ShelterA_1_207': 1180.0, 'init_ShelterA_1_213': 1190.0, 'init_ShelterA_1_212': 1200.0, 'init_ShelterA_1_250': 1200.0, 'init_ShelterA_1_257': 1220.0, 'init_ShelterA_1_259': 1220.0, 'init_ShelterA_1_258': 1230.0, 'init_ShelterA_1_286': 1240.0, 'init_ShelterA_2_289': 1240.0, 'init_ShelterA_2_263': 1250.0, 'init_ShelterA_1_254': 1270.0, 'init_ShelterA_2_299': 1270.0, 'init_ShelterA_2_301': 1290.0, 'init_ShelterA_1_298': 1300.0, 'init_ShelterA_2_303': 1300.0, 'init_ShelterA_1_297': 1310.0, 'init_ShelterA_1_302': 1310.0, 'init_ShelterA_1_305': 1310.0, 'init_ShelterA_1_309': 1310.0, 'init_ShelterA_1_314': 1310.0, 'init_ShelterA_1_315': 1320.0, 'init_ShelterA_1_316': 1320.0, 'init_ShelterA_1_318': 1320.0, 'init_ShelterA_1_313': 1330.0, 'init_ShelterA_1_320': 1330.0, 'init_ShelterA_1_321': 1330.0, 'init_ShelterA_1_322': 1330.0, 'init_ShelterA_2_270': 1360.0, 'init_ShelterA_1_331': 1400.0, 'init_ShelterA_2_332': 1400.0, 'init_ShelterA_2_336': 1400.0, 'init_ShelterA_1_272': 1410.0, 'init_ShelterA_1_337': 1410.0, 'init_ShelterA_2_274': 1420.0, 'init_ShelterA_2_278': 1420.0, 'init_ShelterA_1_273': 1430.0, 'init_ShelterA_1_284': 1430.0, 'init_ShelterA_1_285': 1430.0, 'init_ShelterA_1_349': 1450.0, 'init_ShelterA_1_353': 1480.0, 'init_ShelterA_1_348': 1490.0, 'init_ShelterA_1_350': 1490.0, 'init_ShelterA_1_351': 1490.0, 'init_ShelterA_1_354': 1490.0, 'init_ShelterA_1_356': 1490.0, 'init_ShelterA_1_357': 1490.0, 'init_ShelterA_1_360': 1490.0, 'init_ShelterA_2_363': 1500.0, 'init_ShelterA_1_295': 1520.0, 'init_ShelterA_1_325': 1600.0, 'init_ShelterA_1_326': 1600.0, 'init_ShelterA_1_328': 1600.0, 'init_ShelterA_1_335': 1600.0, 'init_ShelterA_1_317': 1610.0, 'init_ShelterA_1_319': 1610.0, 'init_ShelterA_1_327': 1610.0, 'init_ShelterA_1_340': 1610.0, 'init_ShelterA_1_341': 1610.0, 'init_ShelterA_1_343': 1610.0, 'init_ShelterA_1_334': 1620.0, 'init_ShelterA_1_339': 1620.0, 'init_ShelterA_1_342': 1620.0, 'init_ShelterA_1_291': 1630.0, 'init_ShelterA_1_293': 1630.0, 'init_ShelterA_1_300': 1630.0, 'init_ShelterA_1_304': 1630.0, 'init_ShelterA_1_306': 1630.0, 'init_ShelterA_1_307': 1630.0, 'init_ShelterA_1_308': 1630.0, 'init_ShelterA_1_344': 1640.0, 'init_ShelterA_1_345': 1640.0, 'init_ShelterA_1_347': 1650.0, 'init_ShelterA_1_355': 1650.0, 'init_ShelterA_1_364': 1650.0, 'init_ShelterA_1_365': 1650.0, 'init_ShelterA_1_382': 1650.0, 'init_ShelterA_2_379': 1650.0, 'init_ShelterA_2_384': 1650.0, 'init_ShelterA_1_352': 1660.0, 'init_ShelterA_1_366': 1660.0, 'init_ShelterA_1_367': 1660.0, 'init_ShelterA_1_390': 1660.0, 'init_ShelterA_1_391': 1660.0, 'init_ShelterA_1_392': 1660.0, 'init_ShelterA_1_393': 1660.0, 'init_ShelterA_1_394': 1660.0, 'init_ShelterA_1_386': 1670.0, 'init_ShelterA_1_395': 1670.0, 'init_ShelterA_1_396': 1670.0, 'init_ShelterA_1_397': 1670.0, 'init_ShelterA_1_398': 1670.0, 'init_ShelterA_1_338': 1680.0, 'init_ShelterA_1_330': 1690.0, 'init_ShelterA_1_368': 1830.0, 'init_ShelterA_1_369': 1830.0, 'init_ShelterA_1_373': 1840.0, 'init_ShelterA_2_374': 1850.0, 'init_ShelterA_1_399': 2010.0}
pedestrian_count:0
route_changed_vehicle_count:221
route_change_event_count:221
rate_vehicle_abandonment:0.00%
wrong_way_driving_count:0
vehicle_abandonment_count:0
normalcy_bias_route_change_count:143
majority_bias_route_change_count:78
lane_changed_vehicle_count:0
info_obtained_lanechange_count:0
elapsed_time_lanechange_count:0
majority_bias_lanechange_count:0

=== Job Result ===
end=2026-07-13T01:15:07+0900
elapsed_seconds=458
exit_code=0
status=SUCCESS
