=== Job Info ===
job_name=va_s11_e1.0_v1.0_r3
host=schubert
pid=132840
scenario=11
early_rate=1.0
v2v_rate=1.0
run_id=3
config=/home/katagi/vehicle-assistant-system/scenarios/JIP/configs/config_scenario_11.toml
output_dir=/home/katagi/vehicle-assistant-system/schubert_logs/va_s11_e1.0_v1.0_r3
start=2026-07-13T03:00:50+0900
python_version=Python 3.12.3
sumo_version=Eclipse SUMO sumo Version v1_23_1+0435-630512a

=== Command ===
cd /home/katagi/vehicle-assistant-system/schubert_logs/va_s11_e1.0_v1.0_r3
PYTHONPATH=/home/katagi/vehicle-assistant-system:/home/katagi/tmp/sumo/tools:/home/katagi/local/sumo/tools:/home/katagi/tmp/sumo/tools:/home/katagi/local/sumo/tools:/home/katagi/tmp/sumo/tools:/home/katagi/local/sumo/tools: python3 -W ignore::UserWarning -m scenarios.JIP.1-1-4.simulation.runner_simulator --nogui /home/katagi/vehicle-assistant-system/scenarios/JIP/configs/config_scenario_11.toml 1.0 1.0
simulation_pid=132860
Step #0.00 (0ms ?*RT. ?UPS, TraCI: 334ms, vehicles TOT 1 ACT 1 BUF 0)                     Step #100.00 (0ms ?*RT. ?UPS, TraCI: 17ms, vehicles TOT 26 ACT 26 BUF 0)                  Step #200.00 (1ms ~= 1000.00*RT, ~51000.00UPS, TraCI: 37ms, vehicles TOT 51 ACT 51 BUF 0) Step #300.00 (1ms ~= 1000.00*RT, ~77000.00UPS, TraCI: 53ms, vehicles TOT 77 ACT 77 BUF 0) Step #400.00 (1ms ~= 1000.00*RT, ~104000.00UPS, TraCI: 69ms, vehicles TOT 104 ACT 104 BUF Step #500.00 (1ms ~= 1000.00*RT, ~131000.00UPS, TraCI: 934ms, vehicles TOT 131 ACT 131 BUFStep #600.00 (1ms ~= 1000.00*RT, ~158000.00UPS, TraCI: 1707ms, vehicles TOT 158 ACT 158 BUStep #700.00 (1ms ~= 1000.00*RT, ~184000.00UPS, TraCI: 782ms, vehicles TOT 184 ACT 184 BUFStep #800.00 (1ms ~= 1000.00*RT, ~207000.00UPS, TraCI: 400ms, vehicles TOT 207 ACT 207 BUFStep #900.00 (1ms ~= 1000.00*RT, ~211000.00UPS, TraCI: 890ms, vehicles TOT 237 ACT 211 BUFStep #1000.00 (0ms ?*RT. ?UPS, TraCI: 1392ms, vehicles TOT 269 ACT 232 BUF 42)            Step #1100.00 (1ms ~= 1000.00*RT, ~253000.00UPS, TraCI: 274ms, vehicles TOT 302 ACT 253 BUStep #1200.00 (1ms ~= 1000.00*RT, ~279000.00UPS, TraCI: 1290ms, vehicles TOT 333 ACT 279 BStep #1300.00 (1ms ~= 1000.00*RT, ~298000.00UPS, TraCI: 1659ms, vehicles TOT 355 ACT 298 BStep #1400.00 (0ms ?*RT. ?UPS, TraCI: 1210ms, vehicles TOT 384 ACT 313 BUF 87)            Step #1500.00 (1ms ~= 1000.00*RT, ~340000.00UPS, TraCI: 2230ms, vehicles TOT 417 ACT 340 BStep #1600.00 (1ms ~= 1000.00*RT, ~363000.00UPS, TraCI: 954ms, vehicles TOT 455 ACT 363 BUStep #1700.00 (1ms ~= 1000.00*RT, ~378000.00UPS, TraCI: 1540ms, vehicles TOT 485 ACT 378 BStep #1800.00 (1ms ~= 1000.00*RT, ~400000.00UPS, TraCI: 1002ms, vehicles TOT 509 ACT 400 BStep #1900.00 (1ms ~= 1000.00*RT, ~400000.00UPS, TraCI: 348ms, vehicles TOT 512 ACT 400 BUStep #2000.00 (1ms ~= 1000.00*RT, ~400000.00UPS, TraCI: 335ms, vehicles TOT 512 ACT 400 BUStep #2100.00 (1ms ~= 1000.00*RT, ~400000.00UPS, TraCI: 120ms, vehicles TOT 512 ACT 400 BUStep #2200.00 (0ms ?*RT. ?UPS, TraCI: 106ms, vehicles TOT 512 ACT 400 BUF 0)              Step #2300.00 (0ms ?*RT. ?UPS, TraCI: 100ms, vehicles TOT 512 ACT 400 BUF 0)              Step #2400.00 (0ms ?*RT. ?UPS, TraCI: 97ms, vehicles TOT 512 ACT 400 BUF 0)               Step #2500.00 (0ms ?*RT. ?UPS, TraCI: 84ms, vehicles TOT 512 ACT 400 BUF 0)               Step #2600.00 (1ms ~= 1000.00*RT, ~400000.00UPS, TraCI: 77ms, vehicles TOT 512 ACT 400 BUFStep #2700.00 (0ms ?*RT. ?UPS, TraCI: 77ms, vehicles TOT 512 ACT 400 BUF 0)               Step #2800.00 (0ms ?*RT. ?UPS, TraCI: 76ms, vehicles TOT 512 ACT 400 BUF 0)               Step #2900.00 (0ms ?*RT. ?UPS, TraCI: 78ms, vehicles TOT 512 ACT 400 BUF 0)               Step #3000.00 (0ms ?*RT. ?UPS, TraCI: 77ms, vehicles TOT 512 ACT 400 BUF 0)               
 Retrying in 1 seconds
出現数: {'A1': 374, 'A2': 26}
割合:
  Total: 400
  A1: 374 (93.50%)
  A2: 26 (6.50%)
  B1: 0 (0.00%)
  B2: 0 (0.00%)
mean elapsed_time: 577.525
OK all vehs arrived 
平均渋滞継続時間: 487.09秒
OK all vehicle abandonment were detected
286
114
===== Simlation Result Summary =====
avg_congestion_duration: 487.09 
arrival_time_by_vehID_dict:{'init_ShelterA_1_0': 207.0, 'init_ShelterA_1_1': 212.0, 'init_ShelterA_1_2': 220.0, 'init_ShelterA_1_3': 230.0, 'init_ShelterA_1_4': 238.0, 'init_ShelterA_1_5': 243.0, 'init_ShelterA_1_6': 247.0, 'init_ShelterA_1_7': 283.0, 'init_ShelterA_1_8': 289.0, 'init_ShelterA_1_9': 295.0, 'init_ShelterA_1_10': 301.0, 'init_ShelterA_1_11': 307.0, 'init_ShelterA_1_12': 314.0, 'init_ShelterA_1_13': 321.0, 'init_ShelterA_1_14': 330.0, 'init_ShelterA_1_15': 338.0, 'init_ShelterA_1_16': 347.0, 'init_ShelterA_1_17': 356.0, 'init_ShelterA_1_18': 366.0, 'init_ShelterA_1_19': 376.0, 'init_ShelterA_1_20': 385.0, 'init_ShelterA_1_21': 395.0, 'init_ShelterA_1_22': 405.0, 'init_ShelterA_1_23': 414.0, 'init_ShelterA_1_24': 424.0, 'init_ShelterA_1_25': 434.0, 'init_ShelterA_1_26': 443.0, 'init_ShelterA_1_27': 453.0, 'init_ShelterA_1_28': 463.0, 'init_ShelterA_1_29': 472.0, 'init_ShelterA_1_30': 482.0, 'init_ShelterA_2_32': 490.0, 'init_ShelterA_1_31': 492.0, 'init_ShelterA_1_33': 501.0, 'init_ShelterA_1_34': 511.0, 'init_ShelterA_1_35': 520.0, 'init_ShelterA_1_36': 530.0, 'init_ShelterA_1_37': 540.0, 'init_ShelterA_1_38': 549.0, 'init_ShelterA_1_39': 559.0, 'init_ShelterA_1_40': 568.0, 'init_ShelterA_1_41': 578.0, 'init_ShelterA_1_42': 587.0, 'init_ShelterA_1_43': 597.0, 'init_ShelterA_1_44': 606.0, 'init_ShelterA_1_45': 616.0, 'init_ShelterA_1_46': 625.0, 'init_ShelterA_1_47': 635.0, 'init_ShelterA_1_48': 644.0, 'init_ShelterA_1_67': 651.0, 'init_ShelterA_1_49': 653.0, 'init_ShelterA_1_69': 662.0, 'init_ShelterA_1_50': 663.0, 'init_ShelterA_1_51': 672.0, 'init_ShelterA_1_70': 672.0, 'init_ShelterA_1_72': 675.0, 'init_ShelterA_1_75': 678.0, 'init_ShelterA_1_52': 681.0, 'init_ShelterA_1_53': 690.0, 'init_ShelterA_1_54': 700.0, 'init_ShelterA_1_55': 709.0, 'init_ShelterA_1_76': 713.0, 'init_ShelterA_1_56': 718.0, 'init_ShelterA_1_77': 725.0, 'init_ShelterA_1_57': 727.0, 'init_ShelterA_1_78': 730.0, 'init_ShelterA_1_58': 736.0, 'init_ShelterA_1_79': 737.0, 'init_ShelterA_1_80': 739.0, 'init_ShelterA_1_81': 742.0, 'init_ShelterA_1_59': 745.0, 'init_ShelterA_1_60': 754.0, 'init_ShelterA_1_82': 759.0, 'init_ShelterA_1_61': 763.0, 'init_ShelterA_1_62': 772.0, 'init_ShelterA_1_83': 774.0, 'init_ShelterA_1_84': 776.0, 'init_ShelterA_1_85': 779.0, 'init_ShelterA_1_63': 781.0, 'init_ShelterA_1_86': 782.0, 'init_ShelterA_1_87': 785.0, 'init_ShelterA_1_64': 790.0, 'init_ShelterA_1_88': 795.0, 'init_ShelterA_1_89': 797.0, 'init_ShelterA_1_65': 799.0, 'init_ShelterA_1_90': 800.0, 'init_ShelterA_1_91': 803.0, 'init_ShelterA_1_66': 807.0, 'init_ShelterA_1_92': 815.0, 'init_ShelterA_1_68': 816.0, 'init_ShelterA_1_71': 825.0, 'init_ShelterA_1_93': 829.0, 'init_ShelterA_1_94': 831.0, 'init_ShelterA_1_73': 834.0, 'init_ShelterA_1_95': 834.0, 'init_ShelterA_1_96': 837.0, 'init_ShelterA_1_98': 839.0, 'init_ShelterA_1_99': 842.0, 'init_ShelterA_1_74': 844.0, 'init_ShelterA_1_102': 845.0, 'init_ShelterA_2_97': 846.0, 'init_ShelterA_1_103': 848.0, 'init_ShelterA_2_100': 849.0, 'init_ShelterA_1_105': 851.0, 'init_ShelterA_2_101': 851.0, 'init_ShelterA_1_106': 854.0, 'init_ShelterA_2_104': 854.0, 'init_ShelterA_1_107': 857.0, 'init_ShelterA_1_108': 859.0, 'init_ShelterA_1_111': 861.0, 'init_ShelterA_2_116': 863.0, 'init_ShelterA_2_120': 865.0, 'init_ShelterA_2_127': 903.0, 'init_ShelterA_1_109': 907.0, 'init_ShelterA_1_110': 909.0, 'init_ShelterA_1_112': 911.0, 'init_ShelterA_1_113': 914.0, 'init_ShelterA_2_133': 916.0, 'init_ShelterA_1_114': 921.0, 'init_ShelterA_1_115': 926.0, 'init_ShelterA_1_135': 932.0, 'init_ShelterA_1_117': 938.0, 'init_ShelterA_1_118': 940.0, 'init_ShelterA_1_119': 943.0, 'init_ShelterA_1_121': 946.0, 'init_ShelterA_1_122': 948.0, 'init_ShelterA_1_123': 951.0, 'init_ShelterA_1_124': 955.0, 'init_ShelterA_1_125': 957.0, 'init_ShelterA_1_126': 992.0, 'init_ShelterA_2_155': 1010.0, 'init_ShelterA_1_128': 1024.0, 'init_ShelterA_1_129': 1026.0, 'init_ShelterA_1_130': 1028.0, 'init_ShelterA_1_131': 1031.0, 'init_ShelterA_1_132': 1034.0, 'init_ShelterA_1_134': 1037.0, 'init_ShelterA_1_136': 1040.0, 'init_ShelterA_1_137': 1043.0, 'init_ShelterA_1_138': 1046.0, 'init_ShelterA_1_139': 1049.0, 'init_ShelterA_1_140': 1052.0, 'init_ShelterA_1_141': 1054.0, 'init_ShelterA_1_142': 1057.0, 'init_ShelterA_1_143': 1061.0, 'init_ShelterA_1_144': 1092.0, 'init_ShelterA_1_145': 1093.0, 'init_ShelterA_1_146': 1095.0, 'init_ShelterA_1_162': 1096.0, 'init_ShelterA_2_163': 1098.0, 'init_ShelterA_1_147': 1107.0, 'init_ShelterA_1_148': 1109.0, 'init_ShelterA_1_149': 1111.0, 'init_ShelterA_1_150': 1114.0, 'init_ShelterA_1_151': 1116.0, 'init_ShelterA_1_152': 1119.0, 'init_ShelterA_1_153': 1122.0, 'init_ShelterA_1_154': 1125.0, 'init_ShelterA_1_156': 1133.0, 'init_ShelterA_1_157': 1135.0, 'init_ShelterA_1_158': 1144.0, 'init_ShelterA_1_159': 1146.0, 'init_ShelterA_1_160': 1152.0, 'init_ShelterA_2_177': 1164.0, 'init_ShelterA_1_161': 1167.0, 'init_ShelterA_2_214': 1197.0, 'init_ShelterA_1_164': 1202.0, 'init_ShelterA_1_165': 1204.0, 'init_ShelterA_1_166': 1206.0, 'init_ShelterA_1_167': 1208.0, 'init_ShelterA_1_168': 1214.0, 'init_ShelterA_1_169': 1216.0, 'init_ShelterA_1_170': 1218.0, 'init_ShelterA_1_171': 1220.0, 'init_ShelterA_1_172': 1223.0, 'init_ShelterA_1_173': 1226.0, 'init_ShelterA_1_174': 1229.0, 'init_ShelterA_1_175': 1232.0, 'init_ShelterA_1_176': 1239.0, 'init_ShelterA_1_178': 1258.0, 'init_ShelterA_1_179': 1272.0, 'init_ShelterA_1_180': 1281.0, 'init_ShelterA_1_181': 1287.0, 'init_ShelterA_1_182': 1289.0, 'init_ShelterA_1_183': 1292.0, 'init_ShelterA_1_210': 1294.0, 'init_ShelterA_1_211': 1297.0, 'newveh_ShelterA_2_184_0': 1316.0, 'init_ShelterA_1_212': 1319.0, 'init_ShelterA_1_213': 1321.0, 'init_ShelterA_1_215': 1323.0, 'init_ShelterA_1_216': 1325.0, 'init_ShelterA_1_217': 1328.0, 'newveh_ShelterA_2_186_2': 1345.0, 'newveh_ShelterA_2_185_1': 1367.0, 'newveh_ShelterA_1_199_25': 1379.0, 'newveh_ShelterA_1_188_24': 1384.0, 'newveh_ShelterA_2_189_4': 1395.0, 'newveh_ShelterA_2_187_3': 1407.0, 'newveh_ShelterA_2_190_5': 1415.0, 'newveh_ShelterA_2_191_6': 1420.0, 'newveh_ShelterA_2_192_7': 1426.0, 'newveh_ShelterA_2_193_8': 1433.0, 'newveh_ShelterA_2_195_10': 1440.0, 'newveh_ShelterA_2_194_9': 1447.0, 'newveh_ShelterA_2_196_11': 1456.0, 'newveh_ShelterA_2_197_12': 1464.0, 'init_ShelterA_1_241': 1470.0, 'newveh_ShelterA_2_198_13': 1473.0, 'init_ShelterA_1_247': 1475.0, 'newveh_ShelterA_2_200_14': 1482.0, 'init_ShelterA_1_258': 1485.0, 'newveh_ShelterA_2_201_15': 1492.0, 'newveh_ShelterA_2_202_16': 1501.0, 'newveh_ShelterA_2_203_17': 1511.0, 'newveh_ShelterA_2_204_18': 1521.0, 'newveh_ShelterA_2_205_19': 1530.0, 'newveh_ShelterA_2_206_20': 1540.0, 'newveh_ShelterA_2_207_21': 1550.0, 'newveh_ShelterA_1_231_30': 1552.0, 'init_ShelterA_2_267': 1554.0, 'newveh_ShelterA_2_208_22': 1559.0, 'newveh_ShelterA_1_233_35': 1564.0, 'init_ShelterA_1_269': 1575.0, 'newveh_ShelterA_2_209_23': 1580.0, 'newveh_ShelterA_1_239_36': 1582.0, 'init_ShelterA_1_219': 1583.0, 'init_ShelterA_1_220': 1585.0, 'init_ShelterA_1_223': 1587.0, 'init_ShelterA_1_279': 1587.0, 'init_ShelterA_1_226': 1589.0, 'init_ShelterA_1_228': 1591.0, 'newveh_ShelterA_1_257_37': 1591.0, 'init_ShelterA_1_232': 1593.0, 'init_ShelterA_1_234': 1596.0, 'init_ShelterA_1_235': 1599.0, 'init_ShelterA_1_236': 1602.0, 'init_ShelterA_1_237': 1605.0, 'init_ShelterA_1_238': 1608.0, 'init_ShelterA_1_240': 1611.0, 'init_ShelterA_1_242': 1614.0, 'init_ShelterA_1_243': 1616.0, 'init_ShelterA_1_244': 1619.0, 'init_ShelterA_1_245': 1622.0, 'newveh_ShelterA_2_218_26': 1642.0, 'init_ShelterA_1_246': 1644.0, 'init_ShelterA_1_248': 1646.0, 'init_ShelterA_1_287': 1648.0, 'init_ShelterA_1_253': 1649.0, 'init_ShelterA_1_256': 1651.0, 'newveh_ShelterA_2_230_29': 1657.0, 'newveh_ShelterA_2_229_28': 1663.0, 'newveh_ShelterA_2_280_65': 1668.0, 'init_ShelterA_1_263': 1670.0, 'newveh_ShelterA_2_224_27': 1679.0, 'newveh_ShelterA_2_221_31': 1689.0, 'init_ShelterA_1_265': 1691.0, 'init_ShelterA_1_266': 1694.0, 'newveh_ShelterA_2_222_32': 1703.0, 'newveh_ShelterA_2_225_33': 1712.0, 'newveh_ShelterA_2_227_34': 1721.0, 'init_ShelterA_1_268': 1723.0, 'newveh_ShelterA_2_278_64': 1733.0, 'newveh_ShelterA_2_275_63': 1742.0, 'newveh_ShelterA_1_272_49': 1748.0, 'newveh_ShelterA_2_274_62': 1751.0, 'newveh_ShelterA_1_273_50': 1759.0, 'newveh_ShelterA_2_271_61': 1760.0, 'newveh_ShelterA_2_270_60': 1782.0, 'init_ShelterA_1_281': 1784.0, 'init_ShelterA_1_282': 1786.0, 'init_ShelterA_1_284': 1788.0, 'init_ShelterA_1_285': 1791.0, 'init_ShelterA_1_286': 1793.0, 'init_ShelterA_1_288': 1795.0, 'init_ShelterA_1_289': 1797.0, 'newveh_ShelterA_2_255_40': 1805.0, 'newveh_ShelterA_2_249_38': 1810.0, 'newveh_ShelterA_2_250_39': 1819.0, 'newveh_ShelterA_2_260_42': 1827.0, 'init_ShelterA_1_333': 1835.0, 'newveh_ShelterA_2_259_41': 1837.0, 'newveh_ShelterA_2_262_44': 1846.0, 'newveh_ShelterA_2_261_43': 1856.0, 'init_ShelterA_1_292': 1858.0, 'newveh_ShelterA_2_264_48': 1868.0, 'init_ShelterA_1_294': 1870.0, 'newveh_ShelterA_2_311_84': 1880.0, 'newveh_ShelterA_2_310_83': 1890.0, 'newveh_ShelterA_2_309_82': 1900.0, 'newveh_ShelterA_2_308_81': 1909.0, 'newveh_ShelterA_2_251_45': 1919.0, 'newveh_ShelterA_2_252_46': 1929.0, 'newveh_ShelterA_2_254_47': 1950.0, 'init_ShelterA_1_295': 1953.0, 'init_ShelterA_1_296': 1955.0, 'init_ShelterA_1_297': 1957.0, 'init_ShelterA_1_298': 1959.0, 'init_ShelterA_1_299': 1961.0, 'init_ShelterA_1_301': 1963.0, 'init_ShelterA_1_306': 1965.0, 'init_ShelterA_1_313': 1968.0, 'init_ShelterA_1_314': 1971.0, 'init_ShelterA_1_315': 1974.0, 'init_ShelterA_1_316': 1976.0, 'init_ShelterA_1_317': 1979.0, 'newveh_ShelterA_2_305_80': 1987.0, 'newveh_ShelterA_2_303_79': 1994.0, 'init_ShelterA_1_361': 2003.0, 'newveh_ShelterA_2_302_78': 2003.0, 'init_ShelterA_1_369': 2007.0, 'newveh_ShelterA_2_300_77': 2011.0, 'newveh_ShelterA_1_312_59': 2017.0, 'newveh_ShelterA_2_283_53': 2020.0, 'newveh_ShelterA_2_276_51': 2030.0, 'newveh_ShelterA_2_277_52': 2051.0, 'init_ShelterA_1_323': 2054.0, 'init_ShelterA_1_327': 2056.0, 'init_ShelterA_1_328': 2058.0, 'init_ShelterA_1_329': 2060.0, 'init_ShelterA_1_330': 2062.0, 'init_ShelterA_1_331': 2064.0, 'init_ShelterA_1_332': 2066.0, 'newveh_ShelterA_2_290_54': 2088.0, 'init_ShelterA_1_334': 2090.0, 'init_ShelterA_1_335': 2092.0, 'init_ShelterA_1_336': 2094.0, 'init_ShelterA_1_337': 2096.0, 'init_ShelterA_1_338': 2098.0, 'init_ShelterA_1_389': 2099.0, 'newveh_ShelterA_2_352_108': 2105.0, 'newveh_ShelterA_2_351_107': 2111.0, 'newveh_ShelterA_1_345_74': 2114.0, 'newveh_ShelterA_1_365_85': 2118.0, 'newveh_ShelterA_2_291_55': 2132.0, 'init_ShelterA_1_339': 2135.0, 'init_ShelterA_1_340': 2137.0, 'init_ShelterA_1_342': 2139.0, 'init_ShelterA_1_343': 2141.0, 'init_ShelterA_1_344': 2143.0, 'init_ShelterA_1_346': 2145.0, 'init_ShelterA_1_348': 2147.0, 'init_ShelterA_1_349': 2149.0, 'init_ShelterA_1_350': 2152.0, 'init_ShelterA_1_353': 2154.0, 'init_ShelterA_1_354': 2157.0, 'newveh_ShelterA_2_293_56': 2180.0, 'init_ShelterA_1_355': 2183.0, 'newveh_ShelterA_1_386_92': 2184.0, 'init_ShelterA_1_356': 2185.0, 'init_ShelterA_1_357': 2187.0, 'init_ShelterA_1_358': 2189.0, 'init_ShelterA_1_359': 2191.0, 'init_ShelterA_1_360': 2193.0, 'init_ShelterA_1_363': 2195.0, 'init_ShelterA_1_366': 2197.0, 'init_ShelterA_1_367': 2199.0, 'init_ShelterA_1_370': 2202.0, 'newveh_ShelterA_2_307_58': 2213.0, 'newveh_ShelterA_2_304_57': 2233.0, 'init_ShelterA_1_374': 2235.0, 'init_ShelterA_1_375': 2237.0, 'init_ShelterA_1_376': 2240.0, 'init_ShelterA_1_377': 2242.0, 'init_ShelterA_1_378': 2244.0, 'init_ShelterA_1_379': 2246.0, 'init_ShelterA_1_380': 2248.0, 'newveh_ShelterA_2_318_66': 2256.0, 'newveh_ShelterA_2_322_68': 2262.0, 'newveh_ShelterA_2_319_67': 2270.0, 'newveh_ShelterA_2_326_73': 2279.0, 'newveh_ShelterA_2_325_72': 2289.0, 'newveh_ShelterA_2_324_71': 2298.0, 'newveh_ShelterA_2_320_69': 2308.0, 'newveh_ShelterA_2_321_70': 2317.0, 'newveh_ShelterA_2_368_87': 2327.0, 'newveh_ShelterA_2_347_76': 2337.0, 'newveh_ShelterA_2_341_75': 2346.0, 'newveh_ShelterA_2_373_91': 2356.0, 'newveh_ShelterA_2_399_111': 2366.0, 'newveh_ShelterA_2_398_110': 2376.0, 'newveh_ShelterA_2_397_109': 2385.0, 'newveh_ShelterA_2_372_90': 2395.0, 'newveh_ShelterA_2_371_89': 2404.0, 'newveh_ShelterA_2_362_86': 2414.0, 'newveh_ShelterA_2_364_88': 2424.0, 'newveh_ShelterA_2_391_94': 2433.0, 'newveh_ShelterA_2_387_93': 2443.0, 'newveh_ShelterA_2_381_101': 2453.0, 'newveh_ShelterA_2_396_100': 2462.0, 'newveh_ShelterA_2_392_95': 2472.0, 'newveh_ShelterA_2_394_99': 2482.0, 'newveh_ShelterA_2_388_98': 2491.0, 'newveh_ShelterA_2_383_97': 2501.0, 'newveh_ShelterA_2_382_96': 2511.0, 'newveh_ShelterA_2_384_102': 2521.0, 'newveh_ShelterA_2_385_103': 2529.0, 'newveh_ShelterA_2_390_104': 2536.0, 'newveh_ShelterA_2_393_105': 2540.0, 'newveh_ShelterA_2_395_106': 2544.0}
vehicle_abandant_time_by_pedestrianID_dict:{}
walking_distance_by_pedestrianID_dict:{}
route_change_time_by_vehID_dict:{'init_ShelterA_1_67': 510.0, 'init_ShelterA_1_69': 510.0, 'init_ShelterA_1_70': 510.0, 'init_ShelterA_1_72': 510.0, 'init_ShelterA_1_75': 510.0, 'init_ShelterA_1_82': 510.0, 'init_ShelterA_1_78': 520.0, 'init_ShelterA_1_80': 520.0, 'init_ShelterA_1_83': 520.0, 'init_ShelterA_1_84': 520.0, 'init_ShelterA_1_85': 520.0, 'init_ShelterA_1_76': 530.0, 'init_ShelterA_1_79': 530.0, 'init_ShelterA_1_77': 550.0, 'init_ShelterA_1_81': 550.0, 'init_ShelterA_1_86': 550.0, 'init_ShelterA_1_87': 550.0, 'init_ShelterA_2_100': 580.0, 'init_ShelterA_2_104': 580.0, 'init_ShelterA_2_97': 580.0, 'init_ShelterA_1_89': 590.0, 'init_ShelterA_1_98': 590.0, 'init_ShelterA_1_99': 590.0, 'init_ShelterA_1_88': 600.0, 'init_ShelterA_1_92': 600.0, 'init_ShelterA_1_94': 600.0, 'init_ShelterA_1_103': 610.0, 'init_ShelterA_1_90': 610.0, 'init_ShelterA_1_91': 610.0, 'init_ShelterA_1_95': 610.0, 'init_ShelterA_1_96': 610.0, 'init_ShelterA_2_101': 610.0, 'init_ShelterA_1_93': 620.0, 'init_ShelterA_1_102': 640.0, 'init_ShelterA_2_116': 650.0, 'init_ShelterA_2_120': 650.0, 'init_ShelterA_1_105': 660.0, 'init_ShelterA_1_106': 660.0, 'init_ShelterA_1_107': 660.0, 'init_ShelterA_1_108': 660.0, 'init_ShelterA_1_118': 660.0, 'init_ShelterA_1_122': 660.0, 'init_ShelterA_1_109': 670.0, 'init_ShelterA_1_110': 670.0, 'init_ShelterA_1_112': 670.0, 'init_ShelterA_1_117': 670.0, 'init_ShelterA_1_113': 680.0, 'init_ShelterA_1_114': 680.0, 'init_ShelterA_1_115': 680.0, 'init_ShelterA_1_119': 690.0, 'init_ShelterA_1_121': 690.0, 'init_ShelterA_2_127': 740.0, 'init_ShelterA_1_123': 750.0, 'init_ShelterA_1_125': 750.0, 'init_ShelterA_1_126': 750.0, 'init_ShelterA_1_124': 760.0, 'init_ShelterA_1_128': 760.0, 'init_ShelterA_1_129': 760.0, 'init_ShelterA_1_130': 770.0, 'init_ShelterA_1_131': 770.0, 'init_ShelterA_1_132': 770.0, 'init_ShelterA_1_134': 770.0, 'init_ShelterA_1_136': 770.0, 'init_ShelterA_2_133': 770.0, 'init_ShelterA_1_137': 780.0, 'init_ShelterA_1_138': 780.0, 'init_ShelterA_1_139': 780.0, 'init_ShelterA_1_140': 780.0, 'init_ShelterA_1_141': 780.0, 'init_ShelterA_1_184': 810.0, 'init_ShelterA_1_185': 810.0, 'init_ShelterA_1_186': 810.0, 'init_ShelterA_1_187': 810.0, 'init_ShelterA_1_189': 810.0, 'init_ShelterA_1_190': 810.0, 'init_ShelterA_1_191': 810.0, 'init_ShelterA_1_192': 810.0, 'init_ShelterA_1_193': 810.0, 'init_ShelterA_1_194': 810.0, 'init_ShelterA_1_195': 810.0, 'init_ShelterA_1_196': 810.0, 'init_ShelterA_1_197': 810.0, 'init_ShelterA_1_198': 810.0, 'init_ShelterA_1_200': 810.0, 'init_ShelterA_1_201': 810.0, 'init_ShelterA_1_202': 810.0, 'init_ShelterA_1_203': 810.0, 'init_ShelterA_1_204': 810.0, 'init_ShelterA_1_205': 810.0, 'init_ShelterA_1_206': 810.0, 'init_ShelterA_1_207': 810.0, 'init_ShelterA_1_208': 810.0, 'init_ShelterA_1_209': 810.0, 'init_ShelterA_2_155': 810.0, 'init_ShelterA_2_188': 810.0, 'init_ShelterA_2_199': 810.0, 'init_ShelterA_1_142': 820.0, 'init_ShelterA_1_156': 820.0, 'init_ShelterA_1_143': 840.0, 'init_ShelterA_1_144': 840.0, 'init_ShelterA_1_145': 840.0, 'init_ShelterA_1_146': 840.0, 'init_ShelterA_1_148': 850.0, 'init_ShelterA_1_149': 850.0, 'init_ShelterA_1_150': 850.0, 'init_ShelterA_1_151': 850.0, 'init_ShelterA_1_152': 850.0, 'init_ShelterA_1_154': 850.0, 'init_ShelterA_1_147': 860.0, 'init_ShelterA_1_153': 860.0, 'init_ShelterA_1_157': 860.0, 'init_ShelterA_1_158': 860.0, 'init_ShelterA_2_163': 860.0, 'init_ShelterA_1_161': 870.0, 'init_ShelterA_1_164': 870.0, 'init_ShelterA_1_165': 870.0, 'init_ShelterA_1_166': 870.0, 'init_ShelterA_2_177': 900.0, 'init_ShelterA_1_159': 920.0, 'init_ShelterA_1_160': 920.0, 'init_ShelterA_1_218': 930.0, 'init_ShelterA_1_170': 940.0, 'init_ShelterA_1_172': 940.0, 'init_ShelterA_1_174': 940.0, 'init_ShelterA_1_175': 940.0, 'init_ShelterA_1_167': 950.0, 'init_ShelterA_1_168': 950.0, 'init_ShelterA_1_171': 950.0, 'init_ShelterA_1_173': 950.0, 'init_ShelterA_1_176': 950.0, 'init_ShelterA_1_169': 960.0, 'init_ShelterA_1_224': 970.0, 'init_ShelterA_1_229': 970.0, 'init_ShelterA_1_230': 970.0, 'init_ShelterA_2_231': 970.0, 'init_ShelterA_1_221': 980.0, 'init_ShelterA_1_222': 980.0, 'init_ShelterA_1_225': 980.0, 'init_ShelterA_1_227': 980.0, 'init_ShelterA_2_233': 980.0, 'init_ShelterA_1_179': 1000.0, 'init_ShelterA_2_239': 1000.0, 'init_ShelterA_1_178': 1010.0, 'init_ShelterA_1_180': 1020.0, 'init_ShelterA_1_211': 1020.0, 'init_ShelterA_2_214': 1020.0, 'init_ShelterA_1_181': 1030.0, 'init_ShelterA_1_182': 1030.0, 'init_ShelterA_1_183': 1030.0, 'init_ShelterA_1_210': 1030.0, 'init_ShelterA_1_212': 1030.0, 'init_ShelterA_1_213': 1030.0, 'init_ShelterA_1_215': 1030.0, 'init_ShelterA_1_216': 1030.0, 'init_ShelterA_1_217': 1030.0, 'init_ShelterA_2_257': 1050.0, 'init_ShelterA_1_249': 1060.0, 'init_ShelterA_1_250': 1060.0, 'init_ShelterA_1_255': 1060.0, 'init_ShelterA_1_259': 1060.0, 'init_ShelterA_1_260': 1060.0, 'init_ShelterA_1_261': 1060.0, 'init_ShelterA_1_262': 1060.0, 'init_ShelterA_1_251': 1070.0, 'init_ShelterA_1_252': 1070.0, 'init_ShelterA_1_254': 1070.0, 'init_ShelterA_1_264': 1070.0, 'init_ShelterA_2_272': 1130.0, 'init_ShelterA_2_273': 1150.0, 'init_ShelterA_1_276': 1160.0, 'init_ShelterA_1_277': 1160.0, 'init_ShelterA_1_283': 1160.0, 'init_ShelterA_1_232': 1210.0, 'init_ShelterA_1_234': 1210.0, 'init_ShelterA_1_235': 1210.0, 'init_ShelterA_1_236': 1210.0, 'init_ShelterA_1_237': 1210.0, 'init_ShelterA_1_238': 1210.0, 'init_ShelterA_1_240': 1210.0, 'init_ShelterA_1_242': 1210.0, 'init_ShelterA_1_290': 1210.0, 'init_ShelterA_1_291': 1210.0, 'init_ShelterA_1_219': 1220.0, 'init_ShelterA_1_220': 1220.0, 'init_ShelterA_1_223': 1220.0, 'init_ShelterA_1_228': 1220.0, 'init_ShelterA_1_243': 1240.0, 'init_ShelterA_1_293': 1260.0, 'init_ShelterA_1_226': 1270.0, 'init_ShelterA_1_244': 1290.0, 'init_ShelterA_1_246': 1290.0, 'init_ShelterA_1_253': 1300.0, 'init_ShelterA_1_248': 1310.0, 'init_ShelterA_1_304': 1320.0, 'init_ShelterA_1_307': 1320.0, 'init_ShelterA_2_267': 1320.0, 'init_ShelterA_1_265': 1330.0, 'init_ShelterA_2_312': 1330.0, 'init_ShelterA_1_268': 1340.0, 'init_ShelterA_1_266': 1350.0, 'init_ShelterA_1_270': 1350.0, 'init_ShelterA_1_271': 1350.0, 'init_ShelterA_1_274': 1350.0, 'init_ShelterA_1_275': 1350.0, 'init_ShelterA_1_278': 1350.0, 'init_ShelterA_1_280': 1350.0, 'init_ShelterA_1_256': 1360.0, 'init_ShelterA_1_245': 1370.0, 'init_ShelterA_1_263': 1370.0, 'init_ShelterA_1_288': 1390.0, 'init_ShelterA_1_289': 1390.0, 'init_ShelterA_1_318': 1390.0, 'init_ShelterA_1_319': 1390.0, 'init_ShelterA_1_322': 1390.0, 'init_ShelterA_1_292': 1400.0, 'init_ShelterA_1_294': 1400.0, 'init_ShelterA_1_320': 1400.0, 'init_ShelterA_1_321': 1400.0, 'init_ShelterA_1_324': 1410.0, 'init_ShelterA_1_325': 1410.0, 'init_ShelterA_1_326': 1410.0, 'init_ShelterA_1_281': 1460.0, 'init_ShelterA_1_286': 1460.0, 'init_ShelterA_1_282': 1470.0, 'init_ShelterA_1_284': 1470.0, 'init_ShelterA_1_285': 1470.0, 'init_ShelterA_2_345': 1480.0, 'init_ShelterA_1_341': 1490.0, 'init_ShelterA_1_347': 1500.0, 'init_ShelterA_1_295': 1530.0, 'init_ShelterA_1_296': 1530.0, 'init_ShelterA_1_297': 1530.0, 'init_ShelterA_1_299': 1530.0, 'init_ShelterA_1_300': 1530.0, 'init_ShelterA_1_302': 1530.0, 'init_ShelterA_1_303': 1530.0, 'init_ShelterA_1_305': 1530.0, 'init_ShelterA_1_308': 1530.0, 'init_ShelterA_1_309': 1530.0, 'init_ShelterA_1_310': 1530.0, 'init_ShelterA_1_311': 1530.0, 'init_ShelterA_1_313': 1560.0, 'init_ShelterA_1_314': 1560.0, 'init_ShelterA_1_316': 1560.0, 'init_ShelterA_1_317': 1560.0, 'init_ShelterA_2_365': 1560.0, 'init_ShelterA_1_327': 1570.0, 'init_ShelterA_1_329': 1570.0, 'init_ShelterA_1_362': 1570.0, 'init_ShelterA_1_368': 1570.0, 'init_ShelterA_1_323': 1580.0, 'init_ShelterA_1_330': 1580.0, 'init_ShelterA_1_331': 1580.0, 'init_ShelterA_1_332': 1580.0, 'init_ShelterA_1_364': 1580.0, 'init_ShelterA_1_371': 1580.0, 'init_ShelterA_1_372': 1580.0, 'init_ShelterA_1_373': 1580.0, 'init_ShelterA_1_301': 1590.0, 'init_ShelterA_1_306': 1590.0, 'init_ShelterA_1_328': 1590.0, 'init_ShelterA_1_298': 1600.0, 'init_ShelterA_1_315': 1600.0, 'init_ShelterA_2_386': 1630.0, 'init_ShelterA_1_387': 1640.0, 'init_ShelterA_1_391': 1640.0, 'init_ShelterA_1_392': 1640.0, 'init_ShelterA_1_382': 1650.0, 'init_ShelterA_1_383': 1650.0, 'init_ShelterA_1_388': 1650.0, 'init_ShelterA_1_394': 1650.0, 'init_ShelterA_1_396': 1650.0, 'init_ShelterA_1_381': 1660.0, 'init_ShelterA_1_384': 1660.0, 'init_ShelterA_1_385': 1660.0, 'init_ShelterA_1_390': 1670.0, 'init_ShelterA_1_393': 1670.0, 'init_ShelterA_1_395': 1670.0, 'init_ShelterA_1_334': 1680.0, 'init_ShelterA_1_335': 1680.0, 'init_ShelterA_1_336': 1680.0, 'init_ShelterA_1_339': 1690.0, 'init_ShelterA_1_342': 1690.0, 'init_ShelterA_1_340': 1700.0, 'init_ShelterA_1_343': 1700.0, 'init_ShelterA_1_344': 1700.0, 'init_ShelterA_1_349': 1700.0, 'init_ShelterA_1_350': 1700.0, 'init_ShelterA_1_346': 1710.0, 'init_ShelterA_1_351': 1710.0, 'init_ShelterA_1_352': 1710.0, 'init_ShelterA_1_337': 1730.0, 'init_ShelterA_1_338': 1730.0, 'init_ShelterA_1_356': 1740.0, 'init_ShelterA_1_359': 1740.0, 'init_ShelterA_1_363': 1740.0, 'init_ShelterA_1_358': 1750.0, 'init_ShelterA_1_360': 1750.0, 'init_ShelterA_1_353': 1760.0, 'init_ShelterA_1_354': 1770.0, 'init_ShelterA_1_355': 1770.0, 'init_ShelterA_1_357': 1780.0, 'init_ShelterA_1_366': 1790.0, 'init_ShelterA_1_348': 1810.0, 'init_ShelterA_1_375': 1850.0, 'init_ShelterA_1_376': 1850.0, 'init_ShelterA_1_377': 1850.0, 'init_ShelterA_1_378': 1850.0, 'init_ShelterA_1_374': 1860.0, 'init_ShelterA_1_379': 1860.0, 'init_ShelterA_1_380': 1860.0, 'init_ShelterA_1_367': 1870.0, 'init_ShelterA_1_370': 1870.0, 'init_ShelterA_1_397': 1880.0, 'init_ShelterA_1_398': 1880.0, 'init_ShelterA_1_399': 1880.0}
pedestrian_count:0
route_changed_vehicle_count:316
route_change_event_count:316
rate_vehicle_abandonment:0.00%
wrong_way_driving_count:0
vehicle_abandonment_count:0
normalcy_bias_route_change_count:188
majority_bias_route_change_count:128
lane_changed_vehicle_count:0
info_obtained_lanechange_count:0
elapsed_time_lanechange_count:0
majority_bias_lanechange_count:0

=== Job Result ===
end=2026-07-13T03:06:45+0900
elapsed_seconds=355
exit_code=0
status=SUCCESS
