=== Job Info ===
job_name=va_s14_e1.0_v1.0_r39
host=schubert
pid=143325
scenario=14
early_rate=1.0
v2v_rate=1.0
run_id=39
config=/home/katagi/vehicle-assistant-system/scenarios/JIP/configs/config_scenario_14.toml
output_dir=/home/katagi/vehicle-assistant-system/schubert_logs/va_s14_e1.0_v1.0_r39
start=2026-07-13T03:47:22+0900
python_version=Python 3.12.3
sumo_version=Eclipse SUMO sumo Version v1_23_1+0435-630512a

=== Command ===
cd /home/katagi/vehicle-assistant-system/schubert_logs/va_s14_e1.0_v1.0_r39
PYTHONPATH=/home/katagi/vehicle-assistant-system:/home/katagi/tmp/sumo/tools:/home/katagi/local/sumo/tools:/home/katagi/tmp/sumo/tools:/home/katagi/local/sumo/tools:/home/katagi/tmp/sumo/tools:/home/katagi/local/sumo/tools: python3 -W ignore::UserWarning -m scenarios.JIP.1-1-4.simulation.runner_simulator --nogui /home/katagi/vehicle-assistant-system/scenarios/JIP/configs/config_scenario_14.toml 1.0 1.0
simulation_pid=143345
Step #0.00 (0ms ?*RT. ?UPS, TraCI: 336ms, vehicles TOT 1 ACT 1 BUF 0)                     Step #100.00 (0ms ?*RT. ?UPS, TraCI: 18ms, vehicles TOT 26 ACT 26 BUF 0)                  Step #200.00 (1ms ~= 1000.00*RT, ~51000.00UPS, TraCI: 37ms, vehicles TOT 51 ACT 51 BUF 0) Step #300.00 (0ms ?*RT. ?UPS, TraCI: 56ms, vehicles TOT 77 ACT 77 BUF 0)                  Step #400.00 (1ms ~= 1000.00*RT, ~104000.00UPS, TraCI: 66ms, vehicles TOT 104 ACT 104 BUF Step #500.00 (0ms ?*RT. ?UPS, TraCI: 462ms, vehicles TOT 131 ACT 131 BUF 0)               Step #600.00 (0ms ?*RT. ?UPS, TraCI: 1288ms, vehicles TOT 161 ACT 147 BUF 11)             Step #700.00 (0ms ?*RT. ?UPS, TraCI: 757ms, vehicles TOT 188 ACT 166 BUF 20)              Step #800.00 (1ms ~= 1000.00*RT, ~196000.00UPS, TraCI: 1631ms, vehicles TOT 223 ACT 196 BUStep #900.00 (0ms ?*RT. ?UPS, TraCI: 1619ms, vehicles TOT 254 ACT 209 BUF 35)             Step #1000.00 (1ms ~= 1000.00*RT, ~230000.00UPS, TraCI: 1895ms, vehicles TOT 286 ACT 230 BStep #1100.00 (1ms ~= 1000.00*RT, ~252000.00UPS, TraCI: 1707ms, vehicles TOT 313 ACT 252 BStep #1200.00 (1ms ~= 1000.00*RT, ~273000.00UPS, TraCI: 1572ms, vehicles TOT 335 ACT 273 BStep #1300.00 (1ms ~= 1000.00*RT, ~296000.00UPS, TraCI: 1422ms, vehicles TOT 364 ACT 296 BStep #1400.00 (1ms ~= 1000.00*RT, ~315000.00UPS, TraCI: 2353ms, vehicles TOT 400 ACT 315 BStep #1500.00 (1ms ~= 1000.00*RT, ~337000.00UPS, TraCI: 970ms, vehicles TOT 445 ACT 337 BUStep #1600.00 (1ms ~= 1000.00*RT, ~362000.00UPS, TraCI: 1723ms, vehicles TOT 480 ACT 362 BStep #1700.00 (1ms ~= 1000.00*RT, ~384000.00UPS, TraCI: 1025ms, vehicles TOT 508 ACT 384 BStep #1800.00 (1ms ~= 1000.00*RT, ~400000.00UPS, TraCI: 772ms, vehicles TOT 527 ACT 400 BUStep #1900.00 (1ms ~= 1000.00*RT, ~400000.00UPS, TraCI: 585ms, vehicles TOT 527 ACT 400 BUStep #2000.00 (1ms ~= 1000.00*RT, ~400000.00UPS, TraCI: 245ms, vehicles TOT 527 ACT 400 BUStep #2100.00 (1ms ~= 1000.00*RT, ~400000.00UPS, TraCI: 104ms, vehicles TOT 527 ACT 400 BUStep #2200.00 (1ms ~= 1000.00*RT, ~400000.00UPS, TraCI: 106ms, vehicles TOT 527 ACT 400 BUStep #2300.00 (1ms ~= 1000.00*RT, ~400000.00UPS, TraCI: 101ms, vehicles TOT 527 ACT 400 BUStep #2400.00 (0ms ?*RT. ?UPS, TraCI: 98ms, vehicles TOT 527 ACT 400 BUF 0)               Step #2500.00 (0ms ?*RT. ?UPS, TraCI: 86ms, vehicles TOT 527 ACT 400 BUF 0)               Step #2600.00 (0ms ?*RT. ?UPS, TraCI: 78ms, vehicles TOT 527 ACT 400 BUF 0)               Step #2700.00 (0ms ?*RT. ?UPS, TraCI: 78ms, vehicles TOT 527 ACT 400 BUF 0)               Step #2800.00 (0ms ?*RT. ?UPS, TraCI: 78ms, vehicles TOT 527 ACT 400 BUF 0)               Step #2900.00 (0ms ?*RT. ?UPS, TraCI: 75ms, vehicles TOT 527 ACT 400 BUF 0)               Step #3000.00 (0ms ?*RT. ?UPS, TraCI: 79ms, vehicles TOT 527 ACT 400 BUF 0)               
 Retrying in 1 seconds
出現数: {'A1': 359, 'A2': 41}
割合:
  Total: 400
  A1: 359 (89.75%)
  A2: 41 (10.25%)
  B1: 0 (0.00%)
  B2: 0 (0.00%)
mean elapsed_time: 557.14
OK all vehs arrived 
平均渋滞継続時間: 505.30秒
OK all vehicle abandonment were detected
262
138
===== Simlation Result Summary =====
avg_congestion_duration: 505.30 
arrival_time_by_vehID_dict:{'init_ShelterA_1_0': 204.0, 'init_ShelterA_1_1': 228.0, 'init_ShelterA_1_2': 235.0, 'init_ShelterA_1_3': 242.0, 'init_ShelterA_1_4': 246.0, 'init_ShelterA_1_5': 251.0, 'init_ShelterA_1_6': 291.0, 'init_ShelterA_1_7': 298.0, 'init_ShelterA_1_8': 303.0, 'init_ShelterA_1_9': 309.0, 'init_ShelterA_1_10': 315.0, 'init_ShelterA_1_11': 321.0, 'init_ShelterA_1_12': 328.0, 'init_ShelterA_1_13': 333.0, 'init_ShelterA_1_14': 338.0, 'init_ShelterA_1_15': 342.0, 'init_ShelterA_1_16': 376.0, 'init_ShelterA_1_17': 383.0, 'init_ShelterA_1_18': 388.0, 'init_ShelterA_1_19': 394.0, 'init_ShelterA_1_20': 401.0, 'init_ShelterA_1_22': 408.0, 'init_ShelterA_1_24': 415.0, 'init_ShelterA_1_25': 424.0, 'init_ShelterA_1_26': 433.0, 'init_ShelterA_1_27': 441.0, 'init_ShelterA_1_28': 447.0, 'init_ShelterA_1_29': 451.0, 'init_ShelterA_1_32': 456.0, 'init_ShelterA_1_33': 462.0, 'init_ShelterA_1_34': 473.0, 'init_ShelterA_1_35': 479.0, 'init_ShelterA_1_36': 485.0, 'init_ShelterA_1_37': 490.0, 'init_ShelterA_1_38': 496.0, 'init_ShelterA_2_21': 499.0, 'init_ShelterA_1_39': 503.0, 'init_ShelterA_2_23': 504.0, 'init_ShelterA_2_30': 509.0, 'init_ShelterA_1_40': 510.0, 'init_ShelterA_2_31': 516.0, 'init_ShelterA_1_43': 517.0, 'init_ShelterA_1_44': 526.0, 'init_ShelterA_1_45': 533.0, 'init_ShelterA_1_47': 540.0, 'init_ShelterA_1_48': 544.0, 'init_ShelterA_1_49': 549.0, 'init_ShelterA_1_50': 556.0, 'init_ShelterA_1_51': 563.0, 'init_ShelterA_1_52': 568.0, 'init_ShelterA_1_53': 573.0, 'init_ShelterA_1_54': 580.0, 'init_ShelterA_1_55': 585.0, 'init_ShelterA_1_56': 591.0, 'init_ShelterA_1_57': 596.0, 'init_ShelterA_2_41': 599.0, 'init_ShelterA_1_58': 603.0, 'init_ShelterA_2_42': 605.0, 'init_ShelterA_1_59': 610.0, 'init_ShelterA_2_46': 610.0, 'init_ShelterA_1_60': 618.0, 'init_ShelterA_1_61': 626.0, 'init_ShelterA_1_62': 635.0, 'init_ShelterA_1_63': 643.0, 'init_ShelterA_1_64': 650.0, 'init_ShelterA_1_65': 655.0, 'init_ShelterA_1_66': 662.0, 'init_ShelterA_1_68': 669.0, 'init_ShelterA_2_75': 672.0, 'init_ShelterA_2_78': 674.0, 'init_ShelterA_2_81': 677.0, 'init_ShelterA_1_67': 720.0, 'init_ShelterA_1_69': 724.0, 'init_ShelterA_1_70': 734.0, 'init_ShelterA_1_71': 737.0, 'init_ShelterA_1_72': 741.0, 'init_ShelterA_1_73': 744.0, 'init_ShelterA_1_74': 753.0, 'init_ShelterA_2_95': 754.0, 'init_ShelterA_1_76': 756.0, 'init_ShelterA_1_77': 758.0, 'init_ShelterA_1_79': 761.0, 'init_ShelterA_1_80': 767.0, 'init_ShelterA_1_82': 769.0, 'init_ShelterA_1_83': 780.0, 'init_ShelterA_1_84': 796.0, 'init_ShelterA_2_101': 811.0, 'init_ShelterA_2_107': 822.0, 'init_ShelterA_1_85': 829.0, 'init_ShelterA_1_86': 831.0, 'init_ShelterA_1_87': 834.0, 'init_ShelterA_1_88': 837.0, 'init_ShelterA_1_89': 839.0, 'init_ShelterA_1_90': 846.0, 'init_ShelterA_1_91': 848.0, 'init_ShelterA_1_92': 851.0, 'init_ShelterA_1_93': 853.0, 'init_ShelterA_1_94': 856.0, 'init_ShelterA_1_96': 859.0, 'init_ShelterA_1_97': 865.0, 'init_ShelterA_1_98': 870.0, 'init_ShelterA_1_99': 872.0, 'init_ShelterA_1_100': 875.0, 'init_ShelterA_1_102': 891.0, 'init_ShelterA_1_103': 915.0, 'init_ShelterA_1_104': 918.0, 'init_ShelterA_1_105': 927.0, 'init_ShelterA_1_106': 929.0, 'init_ShelterA_1_108': 931.0, 'init_ShelterA_1_122': 933.0, 'init_ShelterA_1_124': 940.0, 'init_ShelterA_1_125': 945.0, 'init_ShelterA_1_109': 948.0, 'init_ShelterA_1_110': 950.0, 'init_ShelterA_1_127': 951.0, 'init_ShelterA_1_111': 953.0, 'init_ShelterA_1_128': 957.0, 'init_ShelterA_1_112': 963.0, 'newveh_ShelterA_1_143_1': 964.0, 'init_ShelterA_1_113': 965.0, 'init_ShelterA_1_114': 967.0, 'init_ShelterA_1_115': 970.0, 'init_ShelterA_1_140': 971.0, 'init_ShelterA_1_116': 973.0, 'newveh_ShelterA_1_136_0': 975.0, 'init_ShelterA_1_117': 976.0, 'init_ShelterA_1_144': 980.0, 'init_ShelterA_1_118': 994.0, 'init_ShelterA_2_145': 995.0, 'init_ShelterA_1_119': 996.0, 'init_ShelterA_1_120': 1012.0, 'init_ShelterA_1_121': 1014.0, 'init_ShelterA_1_123': 1016.0, 'init_ShelterA_1_126': 1019.0, 'init_ShelterA_1_142': 1022.0, 'init_ShelterA_1_148': 1038.0, 'init_ShelterA_1_149': 1046.0, 'init_ShelterA_1_150': 1051.0, 'newveh_ShelterA_2_129_2': 1052.0, 'init_ShelterA_1_152': 1055.0, 'init_ShelterA_1_153': 1096.0, 'init_ShelterA_1_154': 1103.0, 'init_ShelterA_1_155': 1109.0, 'init_ShelterA_1_156': 1114.0, 'init_ShelterA_1_158': 1121.0, 'init_ShelterA_1_159': 1128.0, 'newveh_ShelterA_2_135_8': 1130.0, 'init_ShelterA_1_161': 1135.0, 'newveh_ShelterA_2_134_7': 1137.0, 'newveh_ShelterA_2_133_6': 1142.0, 'init_ShelterA_1_162': 1143.0, 'newveh_ShelterA_2_132_5': 1148.0, 'init_ShelterA_1_163': 1152.0, 'newveh_ShelterA_2_131_4': 1154.0, 'newveh_ShelterA_1_157_15': 1161.0, 'newveh_ShelterA_2_130_3': 1161.0, 'newveh_ShelterA_2_137_9': 1168.0, 'init_ShelterA_1_164': 1170.0, 'newveh_ShelterA_2_138_10': 1176.0, 'newveh_ShelterA_1_151_14': 1178.0, 'init_ShelterA_1_170': 1184.0, 'newveh_ShelterA_2_139_11': 1186.0, 'init_ShelterA_1_173': 1191.0, 'newveh_ShelterA_2_141_12': 1192.0, 'init_ShelterA_1_147': 1194.0, 'init_ShelterA_1_174': 1198.0, 'newveh_ShelterA_2_146_13': 1199.0, 'init_ShelterA_1_176': 1207.0, 'newveh_ShelterA_2_160_16': 1210.0, 'init_ShelterA_1_177': 1216.0, 'init_ShelterA_1_178': 1225.0, 'newveh_ShelterA_2_166_17': 1233.0, 'init_ShelterA_1_179': 1234.0, 'init_ShelterA_1_180': 1244.0, 'init_ShelterA_2_181': 1247.0, 'init_ShelterA_1_184': 1256.0, 'init_ShelterA_1_185': 1263.0, 'newveh_ShelterA_1_169_21': 1267.0, 'newveh_ShelterA_1_175_24': 1271.0, 'init_ShelterA_1_196': 1293.0, 'init_ShelterA_1_198': 1301.0, 'newveh_ShelterA_2_165_19': 1302.0, 'init_ShelterA_1_201': 1308.0, 'newveh_ShelterA_2_168_18': 1309.0, 'init_ShelterA_2_202': 1310.0, 'newveh_ShelterA_2_167_20': 1314.0, 'init_ShelterA_1_186': 1316.0, 'init_ShelterA_1_204': 1316.0, 'init_ShelterA_1_206': 1320.0, 'newveh_ShelterA_2_171_22': 1326.0, 'newveh_ShelterA_2_183_26': 1336.0, 'newveh_ShelterA_2_182_25': 1340.0, 'newveh_ShelterA_2_203_56': 1345.0, 'newveh_ShelterA_2_172_23': 1374.0, 'init_ShelterA_1_195': 1377.0, 'init_ShelterA_1_199': 1379.0, 'init_ShelterA_1_200': 1381.0, 'init_ShelterA_1_205': 1383.0, 'init_ShelterA_2_227': 1384.0, 'init_ShelterA_1_207': 1386.0, 'init_ShelterA_1_208': 1389.0, 'newveh_ShelterA_1_215_36': 1399.0, 'newveh_ShelterA_1_217_37': 1404.0, 'newveh_ShelterA_2_187_27': 1409.0, 'newveh_ShelterA_2_197_35': 1418.0, 'newveh_ShelterA_2_194_34': 1423.0, 'newveh_ShelterA_2_193_33': 1427.0, 'init_ShelterA_1_239': 1455.0, 'init_ShelterA_1_240': 1459.0, 'init_ShelterA_2_241': 1462.0, 'newveh_ShelterA_2_192_32': 1469.0, 'init_ShelterA_2_244': 1474.0, 'newveh_ShelterA_2_191_31': 1475.0, 'newveh_ShelterA_2_190_30': 1481.0, 'init_ShelterA_1_245': 1488.0, 'newveh_ShelterA_2_189_29': 1490.0, 'init_ShelterA_1_246': 1494.0, 'init_ShelterA_1_247': 1498.0, 'newveh_ShelterA_2_188_28': 1510.0, 'init_ShelterA_1_218': 1512.0, 'init_ShelterA_1_219': 1514.0, 'init_ShelterA_1_220': 1517.0, 'init_ShelterA_1_222': 1519.0, 'init_ShelterA_1_223': 1521.0, 'init_ShelterA_1_224': 1524.0, 'init_ShelterA_1_225': 1527.0, 'init_ShelterA_1_226': 1530.0, 'newveh_ShelterA_2_209_38': 1536.0, 'newveh_ShelterA_2_221_61': 1541.0, 'newveh_ShelterA_2_253_66': 1546.0, 'newveh_ShelterA_2_243_65': 1550.0, 'newveh_ShelterA_2_258_67': 1559.0, 'newveh_ShelterA_1_228_45': 1560.0, 'init_ShelterA_2_265': 1562.0, 'newveh_ShelterA_2_216_44': 1566.0, 'newveh_ShelterA_2_214_43': 1572.0, 'newveh_ShelterA_2_213_42': 1577.0, 'newveh_ShelterA_2_212_41': 1583.0, 'newveh_ShelterA_2_211_40': 1590.0, 'newveh_ShelterA_2_210_39': 1607.0, 'init_ShelterA_1_242': 1609.0, 'init_ShelterA_1_248': 1611.0, 'init_ShelterA_1_249': 1613.0, 'init_ShelterA_1_252': 1615.0, 'init_ShelterA_1_254': 1618.0, 'newveh_ShelterA_1_269_69': 1620.0, 'init_ShelterA_2_274': 1642.0, 'init_ShelterA_2_275': 1644.0, 'init_ShelterA_1_255': 1651.0, 'init_ShelterA_1_256': 1654.0, 'init_ShelterA_1_257': 1656.0, 'init_ShelterA_1_259': 1658.0, 'init_ShelterA_2_291': 1658.0, 'init_ShelterA_1_260': 1660.0, 'init_ShelterA_1_261': 1662.0, 'init_ShelterA_1_264': 1671.0, 'init_ShelterA_1_266': 1673.0, 'init_ShelterA_1_267': 1676.0, 'newveh_ShelterA_2_229_46': 1696.0, 'newveh_ShelterA_2_230_47': 1704.0, 'newveh_ShelterA_2_232_49': 1712.0, 'init_ShelterA_2_294': 1715.0, 'newveh_ShelterA_2_231_48': 1716.0, 'newveh_ShelterA_2_233_50': 1721.0, 'newveh_ShelterA_1_263_60': 1731.0, 'newveh_ShelterA_2_283_89': 1735.0, 'newveh_ShelterA_2_279_88': 1740.0, 'newveh_ShelterA_2_234_51': 1749.0, 'newveh_ShelterA_2_235_52': 1755.0, 'newveh_ShelterA_2_237_54': 1761.0, 'init_ShelterA_1_307': 1763.0, 'newveh_ShelterA_2_236_53': 1769.0, 'newveh_ShelterA_2_238_55': 1790.0, 'init_ShelterA_1_268': 1792.0, 'init_ShelterA_1_270': 1794.0, 'init_ShelterA_1_271': 1796.0, 'init_ShelterA_1_276': 1798.0, 'init_ShelterA_1_277': 1800.0, 'init_ShelterA_1_281': 1802.0, 'init_ShelterA_1_288': 1805.0, 'newveh_ShelterA_2_251_57': 1815.0, 'init_ShelterA_1_292': 1817.0, 'init_ShelterA_1_308': 1819.0, 'newveh_ShelterA_2_278_87': 1824.0, 'newveh_ShelterA_2_273_86': 1831.0, 'init_ShelterA_2_338': 1839.0, 'newveh_ShelterA_2_272_85': 1839.0, 'newveh_ShelterA_2_289_93': 1849.0, 'newveh_ShelterA_2_285_92': 1858.0, 'newveh_ShelterA_2_284_91': 1867.0, 'newveh_ShelterA_2_280_90': 1877.0, 'newveh_ShelterA_2_290_94': 1886.0, 'newveh_ShelterA_2_262_59': 1896.0, 'init_ShelterA_1_293': 1898.0, 'init_ShelterA_1_343': 1906.0, 'newveh_ShelterA_1_282_62': 1911.0, 'newveh_ShelterA_1_286_64': 1916.0, 'newveh_ShelterA_2_250_58': 1921.0, 'init_ShelterA_1_295': 1923.0, 'init_ShelterA_1_296': 1925.0, 'init_ShelterA_1_297': 1928.0, 'init_ShelterA_1_298': 1930.0, 'init_ShelterA_1_348': 1930.0, 'init_ShelterA_1_299': 1932.0, 'init_ShelterA_1_300': 1934.0, 'init_ShelterA_1_301': 1937.0, 'init_ShelterA_1_351': 1938.0, 'init_ShelterA_1_303': 1940.0, 'init_ShelterA_1_304': 1942.0, 'init_ShelterA_1_366': 1942.0, 'init_ShelterA_1_305': 1945.0, 'init_ShelterA_1_368': 1946.0, 'init_ShelterA_1_306': 1948.0, 'newveh_ShelterA_2_337_119': 1957.0, 'newveh_ShelterA_2_335_118': 1977.0, 'init_ShelterA_1_309': 1979.0, 'init_ShelterA_1_310': 1981.0, 'init_ShelterA_1_311': 1983.0, 'init_ShelterA_1_315': 1985.0, 'init_ShelterA_1_322': 1987.0, 'init_ShelterA_2_370': 1987.0, 'init_ShelterA_1_323': 1990.0, 'init_ShelterA_1_325': 1992.0, 'init_ShelterA_1_326': 1994.0, 'init_ShelterA_1_329': 1997.0, 'init_ShelterA_1_333': 2000.0, 'init_ShelterA_1_334': 2003.0, 'init_ShelterA_1_336': 2006.0, 'init_ShelterA_1_339': 2009.0, 'init_ShelterA_1_340': 2012.0, 'newveh_ShelterA_2_367_125': 2020.0, 'newveh_ShelterA_1_316_70': 2022.0, 'init_ShelterA_1_392': 2030.0, 'newveh_ShelterA_2_365_124': 2033.0, 'init_ShelterA_1_394': 2035.0, 'init_ShelterA_1_341': 2036.0, 'init_ShelterA_1_342': 2038.0, 'init_ShelterA_1_344': 2040.0, 'newveh_ShelterA_2_287_63': 2050.0, 'init_ShelterA_1_345': 2052.0, 'init_ShelterA_1_346': 2054.0, 'init_ShelterA_1_352': 2056.0, 'init_ShelterA_1_361': 2058.0, 'init_ShelterA_1_362': 2061.0, 'newveh_ShelterA_2_302_68': 2071.0, 'init_ShelterA_1_369': 2084.0, 'init_ShelterA_1_371': 2101.0, 'init_ShelterA_1_372': 2103.0, 'init_ShelterA_1_379': 2105.0, 'init_ShelterA_1_380': 2108.0, 'init_ShelterA_1_381': 2110.0, 'init_ShelterA_1_382': 2112.0, 'init_ShelterA_1_383': 2114.0, 'init_ShelterA_1_385': 2116.0, 'init_ShelterA_1_386': 2118.0, 'init_ShelterA_1_387': 2121.0, 'init_ShelterA_1_388': 2124.0, 'newveh_ShelterA_2_328_74': 2142.0, 'newveh_ShelterA_2_393_126': 2154.0, 'newveh_ShelterA_1_391_117': 2198.0, 'newveh_ShelterA_2_327_73': 2200.0, 'newveh_ShelterA_2_321_72': 2209.0, 'newveh_ShelterA_2_319_71': 2214.0, 'init_ShelterA_1_395': 2216.0, 'newveh_ShelterA_2_312_75': 2224.0, 'newveh_ShelterA_2_332_84': 2231.0, 'newveh_ShelterA_2_331_83': 2238.0, 'newveh_ShelterA_2_330_82': 2246.0, 'newveh_ShelterA_2_356_96': 2254.0, 'newveh_ShelterA_2_324_81': 2262.0, 'newveh_ShelterA_2_350_95': 2271.0, 'newveh_ShelterA_2_320_80': 2281.0, 'newveh_ShelterA_2_318_79': 2290.0, 'newveh_ShelterA_2_317_78': 2300.0, 'newveh_ShelterA_2_314_77': 2310.0, 'newveh_ShelterA_2_313_76': 2319.0, 'newveh_ShelterA_2_353_99': 2329.0, 'newveh_ShelterA_2_349_98': 2339.0, 'newveh_ShelterA_2_347_97': 2349.0, 'newveh_ShelterA_2_360_105': 2358.0, 'newveh_ShelterA_2_359_104': 2368.0, 'newveh_ShelterA_2_358_103': 2378.0, 'newveh_ShelterA_2_357_102': 2387.0, 'newveh_ShelterA_2_355_101': 2397.0, 'newveh_ShelterA_2_354_100': 2407.0, 'newveh_ShelterA_2_363_106': 2416.0, 'newveh_ShelterA_2_364_107': 2426.0, 'newveh_ShelterA_2_373_109': 2436.0, 'newveh_ShelterA_2_396_120': 2445.0, 'newveh_ShelterA_2_390_116': 2455.0, 'newveh_ShelterA_2_389_115': 2465.0, 'newveh_ShelterA_2_374_108': 2474.0, 'newveh_ShelterA_2_376_111': 2484.0, 'newveh_ShelterA_2_375_110': 2494.0, 'newveh_ShelterA_2_384_114': 2504.0, 'newveh_ShelterA_2_377_112': 2513.0, 'newveh_ShelterA_2_378_113': 2522.0, 'newveh_ShelterA_2_399_123': 2528.0, 'newveh_ShelterA_2_398_122': 2533.0, 'newveh_ShelterA_2_397_121': 2537.0}
vehicle_abandant_time_by_pedestrianID_dict:{}
walking_distance_by_pedestrianID_dict:{}
route_change_time_by_vehID_dict:{'init_ShelterA_1_72': 520.0, 'init_ShelterA_2_75': 520.0, 'init_ShelterA_2_78': 520.0, 'init_ShelterA_2_81': 520.0, 'init_ShelterA_1_71': 530.0, 'init_ShelterA_1_80': 530.0, 'init_ShelterA_1_84': 530.0, 'init_ShelterA_1_85': 530.0, 'init_ShelterA_1_86': 530.0, 'init_ShelterA_1_70': 540.0, 'init_ShelterA_1_82': 540.0, 'init_ShelterA_1_83': 540.0, 'init_ShelterA_1_67': 550.0, 'init_ShelterA_1_69': 550.0, 'init_ShelterA_1_73': 550.0, 'init_ShelterA_1_74': 550.0, 'init_ShelterA_1_76': 550.0, 'init_ShelterA_1_79': 550.0, 'init_ShelterA_2_136': 550.0, 'init_ShelterA_2_143': 550.0, 'init_ShelterA_1_129': 560.0, 'init_ShelterA_1_130': 560.0, 'init_ShelterA_1_131': 560.0, 'init_ShelterA_1_132': 560.0, 'init_ShelterA_1_133': 560.0, 'init_ShelterA_1_134': 560.0, 'init_ShelterA_1_135': 560.0, 'init_ShelterA_1_137': 560.0, 'init_ShelterA_1_138': 560.0, 'init_ShelterA_1_139': 560.0, 'init_ShelterA_1_141': 560.0, 'init_ShelterA_1_77': 560.0, 'init_ShelterA_1_89': 570.0, 'init_ShelterA_2_145': 570.0, 'init_ShelterA_1_146': 580.0, 'init_ShelterA_1_87': 580.0, 'init_ShelterA_1_90': 580.0, 'init_ShelterA_1_91': 590.0, 'init_ShelterA_1_92': 590.0, 'init_ShelterA_1_93': 590.0, 'init_ShelterA_1_94': 590.0, 'init_ShelterA_2_95': 590.0, 'init_ShelterA_1_88': 600.0, 'init_ShelterA_1_96': 600.0, 'init_ShelterA_1_98': 600.0, 'init_ShelterA_2_101': 600.0, 'init_ShelterA_1_100': 610.0, 'init_ShelterA_1_103': 610.0, 'init_ShelterA_1_97': 610.0, 'init_ShelterA_1_102': 620.0, 'init_ShelterA_1_104': 620.0, 'init_ShelterA_1_147': 620.0, 'init_ShelterA_1_99': 620.0, 'init_ShelterA_2_151': 630.0, 'init_ShelterA_2_157': 640.0, 'init_ShelterA_1_160': 650.0, 'init_ShelterA_1_105': 660.0, 'init_ShelterA_1_108': 670.0, 'init_ShelterA_1_166': 670.0, 'init_ShelterA_2_107': 670.0, 'init_ShelterA_1_106': 680.0, 'init_ShelterA_1_109': 680.0, 'init_ShelterA_1_111': 680.0, 'init_ShelterA_1_112': 680.0, 'init_ShelterA_1_114': 680.0, 'init_ShelterA_1_115': 680.0, 'init_ShelterA_1_116': 680.0, 'init_ShelterA_1_117': 680.0, 'init_ShelterA_1_118': 680.0, 'init_ShelterA_1_120': 680.0, 'init_ShelterA_1_121': 680.0, 'init_ShelterA_1_110': 690.0, 'init_ShelterA_1_113': 690.0, 'init_ShelterA_1_119': 690.0, 'init_ShelterA_1_168': 690.0, 'init_ShelterA_1_165': 700.0, 'init_ShelterA_1_167': 700.0, 'init_ShelterA_2_169': 700.0, 'init_ShelterA_1_171': 710.0, 'init_ShelterA_1_172': 730.0, 'init_ShelterA_2_175': 730.0, 'init_ShelterA_1_182': 740.0, 'init_ShelterA_1_183': 740.0, 'init_ShelterA_1_187': 810.0, 'init_ShelterA_1_188': 810.0, 'init_ShelterA_1_189': 810.0, 'init_ShelterA_1_190': 810.0, 'init_ShelterA_1_191': 810.0, 'init_ShelterA_1_192': 810.0, 'init_ShelterA_1_193': 810.0, 'init_ShelterA_1_194': 810.0, 'init_ShelterA_1_197': 810.0, 'init_ShelterA_1_142': 820.0, 'init_ShelterA_1_126': 830.0, 'init_ShelterA_1_123': 840.0, 'init_ShelterA_2_215': 870.0, 'init_ShelterA_2_217': 880.0, 'init_ShelterA_1_209': 890.0, 'init_ShelterA_1_210': 890.0, 'init_ShelterA_1_211': 890.0, 'init_ShelterA_1_212': 890.0, 'init_ShelterA_1_213': 890.0, 'init_ShelterA_1_214': 890.0, 'init_ShelterA_1_216': 890.0, 'init_ShelterA_2_181': 940.0, 'init_ShelterA_2_228': 970.0, 'init_ShelterA_1_229': 980.0, 'init_ShelterA_1_230': 980.0, 'init_ShelterA_1_231': 980.0, 'init_ShelterA_1_232': 980.0, 'init_ShelterA_1_233': 980.0, 'init_ShelterA_1_234': 980.0, 'init_ShelterA_1_235': 980.0, 'init_ShelterA_1_236': 980.0, 'init_ShelterA_1_237': 980.0, 'init_ShelterA_1_238': 980.0, 'init_ShelterA_2_202': 1030.0, 'init_ShelterA_1_203': 1060.0, 'init_ShelterA_1_251': 1060.0, 'init_ShelterA_1_208': 1070.0, 'init_ShelterA_1_250': 1070.0, 'init_ShelterA_1_262': 1070.0, 'init_ShelterA_2_263': 1070.0, 'init_ShelterA_1_205': 1080.0, 'init_ShelterA_1_219': 1080.0, 'init_ShelterA_1_186': 1090.0, 'init_ShelterA_1_195': 1100.0, 'init_ShelterA_1_221': 1150.0, 'init_ShelterA_1_225': 1160.0, 'init_ShelterA_1_226': 1160.0, 'init_ShelterA_1_220': 1170.0, 'init_ShelterA_1_223': 1170.0, 'init_ShelterA_1_224': 1170.0, 'init_ShelterA_2_227': 1170.0, 'init_ShelterA_1_207': 1180.0, 'init_ShelterA_1_218': 1180.0, 'init_ShelterA_1_200': 1190.0, 'init_ShelterA_1_222': 1190.0, 'init_ShelterA_1_199': 1200.0, 'init_ShelterA_1_248': 1210.0, 'init_ShelterA_2_282': 1230.0, 'init_ShelterA_1_287': 1240.0, 'init_ShelterA_2_241': 1240.0, 'init_ShelterA_2_286': 1240.0, 'init_ShelterA_2_244': 1250.0, 'init_ShelterA_1_243': 1260.0, 'init_ShelterA_1_253': 1260.0, 'init_ShelterA_1_258': 1270.0, 'init_ShelterA_1_260': 1270.0, 'init_ShelterA_1_254': 1280.0, 'init_ShelterA_1_256': 1280.0, 'init_ShelterA_1_257': 1280.0, 'init_ShelterA_1_259': 1280.0, 'init_ShelterA_1_255': 1290.0, 'init_ShelterA_1_264': 1290.0, 'init_ShelterA_1_249': 1300.0, 'init_ShelterA_1_252': 1300.0, 'init_ShelterA_2_265': 1300.0, 'init_ShelterA_1_242': 1310.0, 'init_ShelterA_1_302': 1320.0, 'init_ShelterA_1_261': 1330.0, 'init_ShelterA_1_266': 1340.0, 'init_ShelterA_1_267': 1340.0, 'init_ShelterA_2_269': 1360.0, 'init_ShelterA_2_316': 1370.0, 'init_ShelterA_1_276': 1380.0, 'init_ShelterA_1_277': 1380.0, 'init_ShelterA_1_319': 1390.0, 'init_ShelterA_1_321': 1390.0, 'init_ShelterA_1_327': 1390.0, 'init_ShelterA_1_328': 1390.0, 'init_ShelterA_1_312': 1400.0, 'init_ShelterA_1_313': 1400.0, 'init_ShelterA_1_314': 1400.0, 'init_ShelterA_1_317': 1400.0, 'init_ShelterA_1_318': 1400.0, 'init_ShelterA_1_320': 1400.0, 'init_ShelterA_1_324': 1400.0, 'init_ShelterA_1_330': 1400.0, 'init_ShelterA_1_331': 1400.0, 'init_ShelterA_1_332': 1400.0, 'init_ShelterA_2_274': 1420.0, 'init_ShelterA_2_275': 1420.0, 'init_ShelterA_1_271': 1430.0, 'init_ShelterA_1_272': 1430.0, 'init_ShelterA_1_273': 1430.0, 'init_ShelterA_1_278': 1430.0, 'init_ShelterA_1_279': 1430.0, 'init_ShelterA_1_283': 1430.0, 'init_ShelterA_1_268': 1440.0, 'init_ShelterA_1_270': 1440.0, 'init_ShelterA_1_280': 1440.0, 'init_ShelterA_1_284': 1440.0, 'init_ShelterA_1_285': 1440.0, 'init_ShelterA_1_289': 1440.0, 'init_ShelterA_1_290': 1440.0, 'init_ShelterA_1_288': 1450.0, 'init_ShelterA_1_297': 1470.0, 'init_ShelterA_2_294': 1470.0, 'init_ShelterA_1_281': 1480.0, 'init_ShelterA_1_296': 1480.0, 'init_ShelterA_1_298': 1480.0, 'init_ShelterA_1_300': 1480.0, 'init_ShelterA_1_301': 1480.0, 'init_ShelterA_1_303': 1480.0, 'init_ShelterA_1_304': 1480.0, 'init_ShelterA_1_350': 1480.0, 'init_ShelterA_1_356': 1480.0, 'init_ShelterA_1_299': 1490.0, 'init_ShelterA_1_305': 1490.0, 'init_ShelterA_1_306': 1490.0, 'init_ShelterA_1_347': 1490.0, 'init_ShelterA_1_349': 1490.0, 'init_ShelterA_1_353': 1490.0, 'init_ShelterA_1_354': 1490.0, 'init_ShelterA_1_355': 1490.0, 'init_ShelterA_1_357': 1490.0, 'init_ShelterA_1_358': 1490.0, 'init_ShelterA_1_359': 1490.0, 'init_ShelterA_1_360': 1490.0, 'init_ShelterA_1_363': 1500.0, 'init_ShelterA_1_364': 1500.0, 'init_ShelterA_2_291': 1510.0, 'init_ShelterA_1_293': 1520.0, 'init_ShelterA_1_295': 1530.0, 'init_ShelterA_1_292': 1560.0, 'init_ShelterA_1_374': 1570.0, 'init_ShelterA_1_373': 1580.0, 'init_ShelterA_1_375': 1580.0, 'init_ShelterA_1_376': 1580.0, 'init_ShelterA_1_377': 1580.0, 'init_ShelterA_1_378': 1580.0, 'init_ShelterA_1_384': 1580.0, 'init_ShelterA_1_389': 1580.0, 'init_ShelterA_1_390': 1580.0, 'init_ShelterA_2_391': 1580.0, 'init_ShelterA_2_338': 1610.0, 'init_ShelterA_1_335': 1620.0, 'init_ShelterA_1_337': 1620.0, 'init_ShelterA_1_339': 1630.0, 'init_ShelterA_1_336': 1640.0, 'init_ShelterA_1_396': 1640.0, 'init_ShelterA_1_397': 1640.0, 'init_ShelterA_1_398': 1640.0, 'init_ShelterA_1_399': 1640.0, 'init_ShelterA_1_345': 1650.0, 'init_ShelterA_1_346': 1650.0, 'init_ShelterA_1_323': 1660.0, 'init_ShelterA_1_325': 1660.0, 'init_ShelterA_1_326': 1660.0, 'init_ShelterA_1_329': 1660.0, 'init_ShelterA_1_333': 1660.0, 'init_ShelterA_1_309': 1670.0, 'init_ShelterA_1_310': 1670.0, 'init_ShelterA_1_311': 1670.0, 'init_ShelterA_1_315': 1670.0, 'init_ShelterA_1_322': 1670.0, 'init_ShelterA_1_341': 1680.0, 'init_ShelterA_1_334': 1690.0, 'init_ShelterA_1_340': 1690.0, 'init_ShelterA_1_342': 1690.0, 'init_ShelterA_1_344': 1690.0, 'init_ShelterA_1_352': 1700.0, 'init_ShelterA_1_361': 1700.0, 'init_ShelterA_1_365': 1710.0, 'init_ShelterA_1_367': 1710.0, 'init_ShelterA_1_386': 1740.0, 'init_ShelterA_1_388': 1740.0, 'init_ShelterA_1_383': 1750.0, 'init_ShelterA_1_387': 1750.0, 'init_ShelterA_2_370': 1770.0, 'init_ShelterA_1_362': 1780.0, 'init_ShelterA_1_372': 1780.0, 'init_ShelterA_1_379': 1780.0, 'init_ShelterA_1_380': 1780.0, 'init_ShelterA_1_381': 1780.0, 'init_ShelterA_1_382': 1780.0, 'init_ShelterA_1_385': 1780.0, 'init_ShelterA_1_369': 1790.0, 'init_ShelterA_1_371': 1790.0, 'init_ShelterA_1_393': 1790.0, 'init_ShelterA_1_395': 1820.0}
pedestrian_count:0
route_changed_vehicle_count:282
route_change_event_count:282
rate_vehicle_abandonment:0.00%
wrong_way_driving_count:0
vehicle_abandonment_count:0
normalcy_bias_route_change_count:130
majority_bias_route_change_count:152
lane_changed_vehicle_count:0
info_obtained_lanechange_count:0
elapsed_time_lanechange_count:0
majority_bias_lanechange_count:0

=== Job Result ===
end=2026-07-13T03:53:56+0900
elapsed_seconds=394
exit_code=0
status=SUCCESS
