=== Job Info ===
job_name=va_s8_e1.0_v1.0_r7
host=schubert
pid=124593
scenario=8
early_rate=1.0
v2v_rate=1.0
run_id=7
config=/home/katagi/vehicle-assistant-system/scenarios/JIP/configs/config_scenario_8.toml
output_dir=/home/katagi/vehicle-assistant-system/schubert_logs/va_s8_e1.0_v1.0_r7
start=2026-07-13T02:15:55+0900
python_version=Python 3.12.3
sumo_version=Eclipse SUMO sumo Version v1_23_1+0435-630512a

=== Command ===
cd /home/katagi/vehicle-assistant-system/schubert_logs/va_s8_e1.0_v1.0_r7
PYTHONPATH=/home/katagi/vehicle-assistant-system:/home/katagi/tmp/sumo/tools:/home/katagi/local/sumo/tools:/home/katagi/tmp/sumo/tools:/home/katagi/local/sumo/tools:/home/katagi/tmp/sumo/tools:/home/katagi/local/sumo/tools: python3 -W ignore::UserWarning -m scenarios.JIP.1-1-4.simulation.runner_simulator --nogui /home/katagi/vehicle-assistant-system/scenarios/JIP/configs/config_scenario_8.toml 1.0 1.0
simulation_pid=124613
Step #0.00 (0ms ?*RT. ?UPS, TraCI: 335ms, vehicles TOT 1 ACT 1 BUF 0)                     Step #100.00 (0ms ?*RT. ?UPS, TraCI: 18ms, vehicles TOT 26 ACT 26 BUF 0)                  Step #200.00 (0ms ?*RT. ?UPS, TraCI: 38ms, vehicles TOT 51 ACT 51 BUF 0)                  Step #300.00 (0ms ?*RT. ?UPS, TraCI: 53ms, vehicles TOT 77 ACT 77 BUF 0)                  Step #400.00 (1ms ~= 1000.00*RT, ~104000.00UPS, TraCI: 1453ms, vehicles TOT 104 ACT 104 BUStep #500.00 (0ms ?*RT. ?UPS, TraCI: 1261ms, vehicles TOT 131 ACT 131 BUF 0)              Step #600.00 (1ms ~= 1000.00*RT, ~158000.00UPS, TraCI: 1026ms, vehicles TOT 158 ACT 158 BUStep #700.00 (0ms ?*RT. ?UPS, TraCI: 924ms, vehicles TOT 187 ACT 186 BUF 0)               Step #800.00 (1ms ~= 1000.00*RT, ~210000.00UPS, TraCI: 473ms, vehicles TOT 211 ACT 210 BUFStep #900.00 (1ms ~= 1000.00*RT, ~211000.00UPS, TraCI: 1253ms, vehicles TOT 239 ACT 211 BUStep #1000.00 (1ms ~= 1000.00*RT, ~237000.00UPS, TraCI: 1669ms, vehicles TOT 273 ACT 237 BStep #1100.00 (0ms ?*RT. ?UPS, TraCI: 677ms, vehicles TOT 305 ACT 257 BUF 47)             Step #1200.00 (0ms ?*RT. ?UPS, TraCI: 1457ms, vehicles TOT 330 ACT 277 BUF 59)            Step #1300.00 (1ms ~= 1000.00*RT, ~300000.00UPS, TraCI: 2137ms, vehicles TOT 360 ACT 300 BStep #1400.00 (1ms ~= 1000.00*RT, ~322000.00UPS, TraCI: 2152ms, vehicles TOT 390 ACT 322 BStep #1500.00 (1ms ~= 1000.00*RT, ~342000.00UPS, TraCI: 1888ms, vehicles TOT 424 ACT 342 BStep #1600.00 (1ms ~= 1000.00*RT, ~358000.00UPS, TraCI: 1414ms, vehicles TOT 454 ACT 358 BStep #1700.00 (1ms ~= 1000.00*RT, ~383000.00UPS, TraCI: 568ms, vehicles TOT 491 ACT 383 BUStep #1800.00 (1ms ~= 1000.00*RT, ~400000.00UPS, TraCI: 1528ms, vehicles TOT 508 ACT 400 BStep #1900.00 (1ms ~= 1000.00*RT, ~400000.00UPS, TraCI: 1469ms, vehicles TOT 509 ACT 400 BStep #2000.00 (1ms ~= 1000.00*RT, ~400000.00UPS, TraCI: 1280ms, vehicles TOT 509 ACT 400 BStep #2100.00 (0ms ?*RT. ?UPS, TraCI: 623ms, vehicles TOT 509 ACT 400 BUF 0)              Step #2200.00 (0ms ?*RT. ?UPS, TraCI: 101ms, vehicles TOT 509 ACT 400 BUF 0)              Step #2300.00 (0ms ?*RT. ?UPS, TraCI: 90ms, vehicles TOT 509 ACT 400 BUF 0)               Step #2400.00 (0ms ?*RT. ?UPS, TraCI: 79ms, vehicles TOT 509 ACT 400 BUF 0)               Step #2500.00 (0ms ?*RT. ?UPS, TraCI: 78ms, vehicles TOT 509 ACT 400 BUF 0)               Step #2600.00 (0ms ?*RT. ?UPS, TraCI: 77ms, vehicles TOT 509 ACT 400 BUF 0)               Step #2700.00 (0ms ?*RT. ?UPS, TraCI: 78ms, vehicles TOT 509 ACT 400 BUF 0)               Step #2800.00 (0ms ?*RT. ?UPS, TraCI: 77ms, vehicles TOT 509 ACT 400 BUF 0)               Step #2900.00 (0ms ?*RT. ?UPS, TraCI: 77ms, vehicles TOT 509 ACT 400 BUF 0)               Step #3000.00 (0ms ?*RT. ?UPS, TraCI: 79ms, vehicles TOT 509 ACT 400 BUF 0)               
 Retrying in 1 seconds
出現数: {'A1': 356, 'A2': 44}
割合:
  Total: 400
  A1: 356 (89.00%)
  A2: 44 (11.00%)
  B1: 0 (0.00%)
  B2: 0 (0.00%)
mean elapsed_time: 539.765
OK all vehs arrived 
平均渋滞継続時間: 447.98秒
OK all vehicle abandonment were detected
277
123
===== Simlation Result Summary =====
avg_congestion_duration: 447.98 
arrival_time_by_vehID_dict:{'init_ShelterA_1_0': 209.0, 'init_ShelterA_1_2': 214.0, 'init_ShelterA_1_3': 223.0, 'init_ShelterA_1_4': 229.0, 'init_ShelterA_1_5': 235.0, 'init_ShelterA_1_6': 242.0, 'init_ShelterA_1_7': 246.0, 'init_ShelterA_1_8': 251.0, 'init_ShelterA_1_9': 281.0, 'init_ShelterA_1_10': 288.0, 'init_ShelterA_1_11': 296.0, 'init_ShelterA_1_12': 302.0, 'init_ShelterA_2_1': 307.0, 'init_ShelterA_1_13': 309.0, 'init_ShelterA_1_14': 316.0, 'init_ShelterA_1_16': 324.0, 'init_ShelterA_1_17': 333.0, 'init_ShelterA_1_18': 342.0, 'init_ShelterA_1_19': 351.0, 'init_ShelterA_1_20': 360.0, 'init_ShelterA_1_21': 368.0, 'init_ShelterA_1_23': 374.0, 'init_ShelterA_1_24': 379.0, 'init_ShelterA_1_25': 386.0, 'init_ShelterA_1_26': 393.0, 'init_ShelterA_1_28': 400.0, 'init_ShelterA_1_29': 409.0, 'init_ShelterA_2_15': 412.0, 'init_ShelterA_2_22': 417.0, 'init_ShelterA_1_30': 418.0, 'init_ShelterA_1_31': 427.0, 'init_ShelterA_1_32': 437.0, 'init_ShelterA_1_33': 447.0, 'init_ShelterA_1_34': 456.0, 'init_ShelterA_2_27': 464.0, 'init_ShelterA_1_35': 466.0, 'init_ShelterA_1_36': 476.0, 'init_ShelterA_1_37': 485.0, 'init_ShelterA_1_38': 495.0, 'init_ShelterA_1_39': 505.0, 'init_ShelterA_1_40': 514.0, 'init_ShelterA_1_41': 524.0, 'init_ShelterA_1_42': 534.0, 'init_ShelterA_1_43': 544.0, 'init_ShelterA_1_45': 545.0, 'init_ShelterA_1_44': 546.0, 'init_ShelterA_2_46': 547.0, 'init_ShelterA_2_51': 549.0, 'init_ShelterA_1_47': 550.0, 'init_ShelterA_2_53': 552.0, 'init_ShelterA_1_58': 560.0, 'init_ShelterA_1_59': 565.0, 'init_ShelterA_2_62': 567.0, 'init_ShelterA_1_69': 575.0, 'init_ShelterA_1_48': 581.0, 'init_ShelterA_1_49': 588.0, 'init_ShelterA_1_50': 591.0, 'init_ShelterA_1_52': 593.0, 'init_ShelterA_1_54': 596.0, 'init_ShelterA_1_55': 599.0, 'init_ShelterA_1_56': 602.0, 'init_ShelterA_1_57': 605.0, 'init_ShelterA_1_60': 627.0, 'init_ShelterA_1_61': 635.0, 'init_ShelterA_1_63': 637.0, 'init_ShelterA_1_78': 652.0, 'init_ShelterA_1_81': 659.0, 'init_ShelterA_1_64': 665.0, 'init_ShelterA_1_65': 667.0, 'init_ShelterA_1_82': 667.0, 'init_ShelterA_2_83': 669.0, 'init_ShelterA_1_66': 670.0, 'init_ShelterA_2_84': 672.0, 'init_ShelterA_1_67': 673.0, 'init_ShelterA_1_85': 682.0, 'init_ShelterA_2_88': 684.0, 'init_ShelterA_1_68': 689.0, 'init_ShelterA_1_70': 691.0, 'init_ShelterA_1_89': 693.0, 'init_ShelterA_1_71': 694.0, 'init_ShelterA_2_92': 695.0, 'init_ShelterA_1_72': 697.0, 'init_ShelterA_1_73': 699.0, 'init_ShelterA_1_93': 700.0, 'init_ShelterA_1_74': 702.0, 'init_ShelterA_1_75': 705.0, 'init_ShelterA_1_76': 708.0, 'init_ShelterA_1_77': 736.0, 'init_ShelterA_1_96': 736.0, 'init_ShelterA_1_79': 741.0, 'init_ShelterA_1_80': 743.0, 'init_ShelterA_1_97': 745.0, 'init_ShelterA_1_86': 746.0, 'init_ShelterA_1_87': 750.0, 'init_ShelterA_1_103': 751.0, 'init_ShelterA_1_90': 752.0, 'init_ShelterA_2_104': 753.0, 'init_ShelterA_1_94': 781.0, 'newveh_ShelterA_2_91_0': 800.0, 'init_ShelterA_1_95': 820.0, 'init_ShelterA_1_98': 822.0, 'init_ShelterA_1_111': 828.0, 'init_ShelterA_2_114': 831.0, 'init_ShelterA_1_99': 842.0, 'init_ShelterA_1_116': 843.0, 'init_ShelterA_1_100': 844.0, 'init_ShelterA_2_117': 845.0, 'init_ShelterA_1_101': 848.0, 'init_ShelterA_1_118': 858.0, 'init_ShelterA_1_102': 859.0, 'init_ShelterA_2_119': 860.0, 'init_ShelterA_1_105': 861.0, 'init_ShelterA_2_122': 862.0, 'init_ShelterA_1_106': 863.0, 'init_ShelterA_2_125': 865.0, 'init_ShelterA_1_107': 866.0, 'init_ShelterA_2_126': 867.0, 'init_ShelterA_1_108': 869.0, 'init_ShelterA_1_109': 872.0, 'init_ShelterA_1_110': 887.0, 'init_ShelterA_1_112': 898.0, 'init_ShelterA_1_113': 913.0, 'init_ShelterA_1_115': 916.0, 'init_ShelterA_1_120': 918.0, 'init_ShelterA_1_133': 923.0, 'init_ShelterA_2_140': 925.0, 'init_ShelterA_1_121': 933.0, 'init_ShelterA_1_123': 934.0, 'init_ShelterA_1_124': 937.0, 'init_ShelterA_1_127': 947.0, 'init_ShelterA_1_128': 951.0, 'init_ShelterA_1_144': 951.0, 'init_ShelterA_1_129': 982.0, 'init_ShelterA_1_130': 990.0, 'init_ShelterA_1_147': 1010.0, 'init_ShelterA_1_131': 1014.0, 'init_ShelterA_1_132': 1016.0, 'init_ShelterA_1_134': 1018.0, 'init_ShelterA_1_135': 1021.0, 'init_ShelterA_1_136': 1024.0, 'init_ShelterA_1_137': 1026.0, 'init_ShelterA_1_138': 1029.0, 'init_ShelterA_1_139': 1038.0, 'init_ShelterA_1_161': 1040.0, 'init_ShelterA_1_141': 1043.0, 'init_ShelterA_1_142': 1049.0, 'init_ShelterA_1_143': 1051.0, 'init_ShelterA_1_145': 1053.0, 'init_ShelterA_1_146': 1075.0, 'init_ShelterA_2_162': 1077.0, 'init_ShelterA_2_164': 1080.0, 'init_ShelterA_1_148': 1091.0, 'init_ShelterA_2_166': 1096.0, 'init_ShelterA_1_149': 1110.0, 'init_ShelterA_1_150': 1112.0, 'init_ShelterA_1_167': 1112.0, 'init_ShelterA_1_151': 1114.0, 'init_ShelterA_1_168': 1120.0, 'init_ShelterA_2_169': 1122.0, 'init_ShelterA_1_152': 1123.0, 'init_ShelterA_1_153': 1125.0, 'init_ShelterA_1_154': 1127.0, 'init_ShelterA_1_172': 1128.0, 'init_ShelterA_1_155': 1129.0, 'init_ShelterA_2_174': 1130.0, 'init_ShelterA_1_156': 1131.0, 'init_ShelterA_1_157': 1134.0, 'init_ShelterA_1_158': 1137.0, 'init_ShelterA_1_159': 1159.0, 'init_ShelterA_1_160': 1161.0, 'init_ShelterA_1_163': 1163.0, 'init_ShelterA_1_165': 1193.0, 'init_ShelterA_1_180': 1194.0, 'init_ShelterA_1_170': 1195.0, 'init_ShelterA_1_185': 1203.0, 'init_ShelterA_1_215': 1207.0, 'init_ShelterA_1_171': 1208.0, 'init_ShelterA_1_173': 1221.0, 'init_ShelterA_1_175': 1223.0, 'init_ShelterA_1_176': 1225.0, 'init_ShelterA_1_177': 1228.0, 'init_ShelterA_1_178': 1230.0, 'init_ShelterA_1_179': 1247.0, 'init_ShelterA_1_181': 1254.0, 'init_ShelterA_1_182': 1281.0, 'init_ShelterA_1_183': 1283.0, 'init_ShelterA_1_184': 1286.0, 'newveh_ShelterA_2_186_1': 1340.0, 'init_ShelterA_1_213': 1343.0, 'init_ShelterA_1_214': 1345.0, 'init_ShelterA_1_216': 1347.0, 'init_ShelterA_1_217': 1349.0, 'newveh_ShelterA_2_187_2': 1358.0, 'newveh_ShelterA_2_189_3': 1363.0, 'newveh_ShelterA_2_190_4': 1367.0, 'newveh_ShelterA_1_207_27': 1369.0, 'newveh_ShelterA_1_196_26': 1378.0, 'newveh_ShelterA_1_191_25': 1384.0, 'newveh_ShelterA_2_193_6': 1388.0, 'newveh_ShelterA_1_188_24': 1390.0, 'newveh_ShelterA_2_192_5': 1395.0, 'init_ShelterA_1_218': 1397.0, 'init_ShelterA_1_219': 1401.0, 'newveh_ShelterA_2_195_8': 1401.0, 'init_ShelterA_1_220': 1406.0, 'newveh_ShelterA_2_194_7': 1407.0, 'newveh_ShelterA_2_198_10': 1414.0, 'newveh_ShelterA_2_197_9': 1421.0, 'newveh_ShelterA_2_199_11': 1429.0, 'newveh_ShelterA_2_200_12': 1438.0, 'newveh_ShelterA_2_201_13': 1446.0, 'newveh_ShelterA_2_202_14': 1455.0, 'newveh_ShelterA_2_203_15': 1465.0, 'init_ShelterA_1_244': 1467.0, 'newveh_ShelterA_2_204_16': 1474.0, 'newveh_ShelterA_2_205_17': 1484.0, 'init_ShelterA_1_262': 1492.0, 'newveh_ShelterA_2_206_18': 1494.0, 'newveh_ShelterA_2_208_19': 1503.0, 'newveh_ShelterA_2_209_20': 1513.0, 'newveh_ShelterA_2_210_21': 1523.0, 'newveh_ShelterA_2_212_23': 1532.0, 'newveh_ShelterA_1_226_30': 1543.0, 'newveh_ShelterA_1_222_29': 1553.0, 'newveh_ShelterA_2_211_22': 1553.0, 'init_ShelterA_2_265': 1555.0, 'init_ShelterA_1_223': 1556.0, 'init_ShelterA_1_228': 1558.0, 'init_ShelterA_1_229': 1560.0, 'init_ShelterA_1_230': 1562.0, 'init_ShelterA_1_267': 1564.0, 'init_ShelterA_1_231': 1565.0, 'init_ShelterA_1_232': 1567.0, 'init_ShelterA_1_269': 1568.0, 'init_ShelterA_1_233': 1570.0, 'init_ShelterA_1_234': 1573.0, 'newveh_ShelterA_1_239_35': 1573.0, 'init_ShelterA_1_235': 1576.0, 'init_ShelterA_1_236': 1579.0, 'init_ShelterA_1_275': 1579.0, 'init_ShelterA_1_238': 1582.0, 'init_ShelterA_1_240': 1585.0, 'init_ShelterA_1_241': 1588.0, 'init_ShelterA_1_242': 1591.0, 'init_ShelterA_1_243': 1594.0, 'init_ShelterA_1_245': 1597.0, 'init_ShelterA_1_246': 1600.0, 'newveh_ShelterA_2_221_28': 1615.0, 'init_ShelterA_1_256': 1617.0, 'init_ShelterA_1_257': 1619.0, 'init_ShelterA_1_259': 1621.0, 'init_ShelterA_1_261': 1623.0, 'init_ShelterA_1_263': 1626.0, 'init_ShelterA_1_287': 1647.0, 'init_ShelterA_2_288': 1649.0, 'newveh_ShelterA_2_224_31': 1651.0, 'init_ShelterA_1_266': 1654.0, 'init_ShelterA_1_268': 1677.0, 'init_ShelterA_1_270': 1679.0, 'newveh_ShelterA_2_225_32': 1697.0, 'newveh_ShelterA_2_227_33': 1706.0, 'newveh_ShelterA_2_237_34': 1719.0, 'init_ShelterA_1_271': 1721.0, 'init_ShelterA_2_295': 1721.0, 'init_ShelterA_1_272': 1723.0, 'init_ShelterA_2_296': 1723.0, 'init_ShelterA_1_277': 1725.0, 'newveh_ShelterA_2_297_74': 1736.0, 'init_ShelterA_1_279': 1738.0, 'init_ShelterA_1_280': 1740.0, 'init_ShelterA_1_281': 1742.0, 'init_ShelterA_1_282': 1744.0, 'init_ShelterA_1_283': 1746.0, 'newveh_ShelterA_1_286_52': 1759.0, 'init_ShelterA_1_284': 1761.0, 'init_ShelterA_1_285': 1763.0, 'newveh_ShelterA_2_247_36': 1781.0, 'newveh_ShelterA_2_249_37': 1788.0, 'newveh_ShelterA_2_258_38': 1794.0, 'newveh_ShelterA_2_248_39': 1800.0, 'newveh_ShelterA_2_264_47': 1807.0, 'init_ShelterA_1_320': 1814.0, 'newveh_ShelterA_2_260_46': 1814.0, 'newveh_ShelterA_2_255_45': 1820.0, 'init_ShelterA_1_321': 1823.0, 'newveh_ShelterA_2_254_44': 1828.0, 'init_ShelterA_1_322': 1830.0, 'init_ShelterA_1_327': 1835.0, 'newveh_ShelterA_2_318_85': 1837.0, 'newveh_ShelterA_2_317_84': 1845.0, 'newveh_ShelterA_2_304_83': 1854.0, 'newveh_ShelterA_2_300_82': 1864.0, 'newveh_ShelterA_2_319_86': 1873.0, 'newveh_ShelterA_2_253_43': 1883.0, 'newveh_ShelterA_2_252_42': 1892.0, 'newveh_ShelterA_2_251_41': 1902.0, 'newveh_ShelterA_1_301_59': 1924.0, 'newveh_ShelterA_2_250_40': 1924.0, 'init_ShelterA_1_298': 1926.0, 'init_ShelterA_1_299': 1928.0, 'init_ShelterA_1_302': 1930.0, 'init_ShelterA_1_303': 1932.0, 'init_ShelterA_1_362': 1937.0, 'newveh_ShelterA_2_278_48': 1951.0, 'init_ShelterA_1_313': 1953.0, 'init_ShelterA_1_314': 1955.0, 'init_ShelterA_1_315': 1957.0, 'init_ShelterA_1_316': 1959.0, 'newveh_ShelterA_2_273_49': 1966.0, 'newveh_ShelterA_2_340_102': 1970.0, 'newveh_ShelterA_2_274_50': 1979.0, 'init_ShelterA_1_367': 1999.0, 'newveh_ShelterA_2_276_51': 2000.0, 'init_ShelterA_1_323': 2002.0, 'init_ShelterA_1_324': 2004.0, 'newveh_ShelterA_1_305_60': 2005.0, 'init_ShelterA_1_326': 2007.0, 'init_ShelterA_1_328': 2009.0, 'newveh_ShelterA_1_310_61': 2009.0, 'init_ShelterA_1_331': 2011.0, 'init_ShelterA_1_338': 2013.0, 'init_ShelterA_1_342': 2015.0, 'init_ShelterA_1_377': 2020.0, 'newveh_ShelterA_2_289_53': 2023.0, 'init_ShelterA_1_378': 2026.0, 'newveh_ShelterA_2_293_57': 2028.0, 'init_ShelterA_1_379': 2031.0, 'newveh_ShelterA_2_292_56': 2036.0, 'init_ShelterA_1_380': 2038.0, 'init_ShelterA_1_381': 2043.0, 'newveh_ShelterA_2_291_55': 2045.0, 'init_ShelterA_1_382': 2047.0, 'newveh_ShelterA_2_336_101': 2054.0, 'newveh_ShelterA_2_335_100': 2064.0, 'newveh_ShelterA_2_334_99': 2073.0, 'newveh_ShelterA_2_333_98': 2083.0, 'init_ShelterA_1_383': 2086.0, 'init_ShelterA_1_384': 2092.0, 'newveh_ShelterA_2_332_97': 2093.0, 'init_ShelterA_1_385': 2098.0, 'newveh_ShelterA_2_330_96': 2102.0, 'init_ShelterA_1_386': 2104.0, 'init_ShelterA_1_389': 2111.0, 'newveh_ShelterA_2_341_103': 2112.0, 'init_ShelterA_1_390': 2118.0, 'newveh_ShelterA_2_290_54': 2122.0, 'init_ShelterA_1_346': 2124.0, 'init_ShelterA_1_391': 2127.0, 'init_ShelterA_1_393': 2136.0, 'init_ShelterA_1_394': 2144.0, 'newveh_ShelterA_2_294_58': 2146.0, 'init_ShelterA_1_348': 2149.0, 'init_ShelterA_1_396': 2150.0, 'init_ShelterA_1_349': 2151.0, 'init_ShelterA_1_350': 2153.0, 'init_ShelterA_1_398': 2154.0, 'init_ShelterA_1_351': 2155.0, 'init_ShelterA_1_355': 2157.0, 'newveh_ShelterA_1_354_75': 2158.0, 'init_ShelterA_1_358': 2159.0, 'init_ShelterA_1_359': 2161.0, 'init_ShelterA_1_360': 2163.0, 'init_ShelterA_1_361': 2166.0, 'init_ShelterA_1_363': 2169.0, 'init_ShelterA_1_364': 2172.0, 'init_ShelterA_1_365': 2175.0, 'init_ShelterA_1_366': 2177.0, 'newveh_ShelterA_2_306_62': 2186.0, 'newveh_ShelterA_1_375_87': 2188.0, 'newveh_ShelterA_2_312_67': 2193.0, 'newveh_ShelterA_2_311_66': 2201.0, 'newveh_ShelterA_2_309_65': 2207.0, 'newveh_ShelterA_2_308_64': 2215.0, 'newveh_ShelterA_2_307_63': 2223.0, 'newveh_ShelterA_2_399_108': 2232.0, 'init_ShelterA_1_387': 2234.0, 'newveh_ShelterA_2_325_68': 2243.0, 'newveh_ShelterA_2_339_71': 2251.0, 'newveh_ShelterA_2_345_76': 2256.0, 'newveh_ShelterA_2_337_70': 2260.0, 'newveh_ShelterA_1_397_105': 2272.0, 'newveh_ShelterA_2_329_69': 2272.0, 'newveh_ShelterA_1_392_104': 2276.0, 'newveh_ShelterA_2_344_73': 2282.0, 'newveh_ShelterA_2_343_72': 2291.0, 'newveh_ShelterA_2_352_77': 2296.0, 'newveh_ShelterA_2_353_78': 2301.0, 'newveh_ShelterA_2_356_80': 2308.0, 'newveh_ShelterA_2_347_79': 2313.0, 'newveh_ShelterA_2_357_81': 2319.0, 'newveh_ShelterA_2_368_88': 2324.0, 'newveh_ShelterA_2_376_94': 2330.0, 'newveh_ShelterA_2_373_93': 2336.0, 'newveh_ShelterA_2_372_92': 2343.0, 'newveh_ShelterA_2_371_91': 2350.0, 'newveh_ShelterA_2_370_90': 2357.0, 'newveh_ShelterA_2_369_89': 2364.0, 'newveh_ShelterA_2_374_95': 2369.0, 'newveh_ShelterA_2_388_106': 2373.0, 'newveh_ShelterA_2_395_107': 2381.0}
vehicle_abandant_time_by_pedestrianID_dict:{}
walking_distance_by_pedestrianID_dict:{}
route_change_time_by_vehID_dict:{'init_ShelterA_2_46': 350.0, 'init_ShelterA_2_51': 360.0, 'init_ShelterA_1_49': 370.0, 'init_ShelterA_2_53': 370.0, 'init_ShelterA_1_43': 380.0, 'init_ShelterA_1_47': 380.0, 'init_ShelterA_1_48': 380.0, 'init_ShelterA_1_50': 380.0, 'init_ShelterA_1_44': 390.0, 'init_ShelterA_1_54': 410.0, 'init_ShelterA_1_55': 410.0, 'init_ShelterA_1_56': 410.0, 'init_ShelterA_1_57': 410.0, 'init_ShelterA_1_52': 420.0, 'init_ShelterA_2_62': 450.0, 'init_ShelterA_1_60': 460.0, 'init_ShelterA_1_63': 460.0, 'init_ShelterA_1_66': 460.0, 'init_ShelterA_1_67': 460.0, 'init_ShelterA_1_68': 460.0, 'init_ShelterA_1_70': 460.0, 'init_ShelterA_1_61': 470.0, 'init_ShelterA_1_64': 470.0, 'init_ShelterA_1_65': 470.0, 'init_ShelterA_1_71': 480.0, 'init_ShelterA_2_83': 490.0, 'init_ShelterA_1_72': 500.0, 'init_ShelterA_1_73': 500.0, 'init_ShelterA_1_74': 500.0, 'init_ShelterA_1_75': 500.0, 'init_ShelterA_1_76': 510.0, 'init_ShelterA_1_77': 510.0, 'init_ShelterA_1_87': 520.0, 'init_ShelterA_2_84': 520.0, 'init_ShelterA_2_88': 520.0, 'init_ShelterA_1_79': 550.0, 'init_ShelterA_1_80': 550.0, 'init_ShelterA_1_86': 550.0, 'init_ShelterA_1_90': 570.0, 'init_ShelterA_2_92': 580.0, 'init_ShelterA_1_98': 600.0, 'init_ShelterA_1_100': 610.0, 'init_ShelterA_1_102': 610.0, 'init_ShelterA_1_94': 610.0, 'init_ShelterA_1_95': 610.0, 'init_ShelterA_1_99': 610.0, 'init_ShelterA_2_104': 610.0, 'init_ShelterA_1_91': 620.0, 'init_ShelterA_1_108': 660.0, 'init_ShelterA_1_109': 660.0, 'init_ShelterA_1_106': 670.0, 'init_ShelterA_1_101': 680.0, 'init_ShelterA_1_105': 680.0, 'init_ShelterA_1_107': 680.0, 'init_ShelterA_1_110': 680.0, 'init_ShelterA_2_114': 690.0, 'init_ShelterA_2_117': 690.0, 'init_ShelterA_2_119': 690.0, 'init_ShelterA_1_113': 700.0, 'init_ShelterA_1_115': 700.0, 'init_ShelterA_1_121': 700.0, 'init_ShelterA_2_122': 700.0, 'init_ShelterA_2_125': 700.0, 'init_ShelterA_1_123': 710.0, 'init_ShelterA_1_124': 710.0, 'init_ShelterA_1_112': 730.0, 'init_ShelterA_1_120': 730.0, 'init_ShelterA_2_140': 750.0, 'init_ShelterA_1_127': 760.0, 'init_ShelterA_1_128': 760.0, 'init_ShelterA_1_130': 760.0, 'init_ShelterA_1_131': 760.0, 'init_ShelterA_1_132': 760.0, 'init_ShelterA_1_134': 760.0, 'init_ShelterA_1_139': 760.0, 'init_ShelterA_2_126': 760.0, 'init_ShelterA_1_129': 770.0, 'init_ShelterA_1_136': 770.0, 'init_ShelterA_1_137': 770.0, 'init_ShelterA_1_143': 780.0, 'init_ShelterA_1_142': 790.0, 'init_ShelterA_1_141': 800.0, 'init_ShelterA_1_186': 810.0, 'init_ShelterA_1_187': 810.0, 'init_ShelterA_1_189': 810.0, 'init_ShelterA_1_190': 810.0, 'init_ShelterA_1_192': 810.0, 'init_ShelterA_1_193': 810.0, 'init_ShelterA_1_194': 810.0, 'init_ShelterA_1_195': 810.0, 'init_ShelterA_1_197': 810.0, 'init_ShelterA_1_198': 810.0, 'init_ShelterA_1_199': 810.0, 'init_ShelterA_1_200': 810.0, 'init_ShelterA_1_201': 810.0, 'init_ShelterA_1_202': 810.0, 'init_ShelterA_1_203': 810.0, 'init_ShelterA_1_204': 810.0, 'init_ShelterA_1_205': 810.0, 'init_ShelterA_1_206': 810.0, 'init_ShelterA_1_208': 810.0, 'init_ShelterA_1_209': 810.0, 'init_ShelterA_1_210': 810.0, 'init_ShelterA_1_211': 810.0, 'init_ShelterA_1_212': 810.0, 'init_ShelterA_2_188': 810.0, 'init_ShelterA_2_191': 810.0, 'init_ShelterA_2_196': 810.0, 'init_ShelterA_2_207': 810.0, 'init_ShelterA_1_138': 820.0, 'init_ShelterA_1_135': 830.0, 'init_ShelterA_1_146': 840.0, 'init_ShelterA_1_149': 860.0, 'init_ShelterA_1_155': 860.0, 'init_ShelterA_1_145': 870.0, 'init_ShelterA_1_148': 870.0, 'init_ShelterA_1_150': 870.0, 'init_ShelterA_1_151': 870.0, 'init_ShelterA_1_152': 870.0, 'init_ShelterA_1_153': 870.0, 'init_ShelterA_1_154': 870.0, 'init_ShelterA_1_159': 870.0, 'init_ShelterA_1_156': 880.0, 'init_ShelterA_1_157': 880.0, 'init_ShelterA_1_158': 880.0, 'init_ShelterA_1_160': 920.0, 'init_ShelterA_1_163': 920.0, 'init_ShelterA_2_162': 920.0, 'init_ShelterA_2_169': 930.0, 'init_ShelterA_1_165': 940.0, 'init_ShelterA_1_171': 940.0, 'init_ShelterA_1_173': 940.0, 'init_ShelterA_1_175': 940.0, 'init_ShelterA_2_164': 940.0, 'init_ShelterA_2_166': 940.0, 'init_ShelterA_2_174': 940.0, 'init_ShelterA_1_170': 950.0, 'init_ShelterA_1_177': 950.0, 'init_ShelterA_1_178': 950.0, 'init_ShelterA_1_176': 960.0, 'init_ShelterA_1_221': 970.0, 'init_ShelterA_2_222': 970.0, 'init_ShelterA_2_226': 970.0, 'init_ShelterA_1_179': 990.0, 'init_ShelterA_1_224': 990.0, 'init_ShelterA_1_225': 990.0, 'init_ShelterA_1_227': 990.0, 'init_ShelterA_1_237': 990.0, 'init_ShelterA_2_239': 990.0, 'init_ShelterA_1_181': 1010.0, 'init_ShelterA_1_183': 1020.0, 'init_ShelterA_1_184': 1030.0, 'init_ShelterA_1_213': 1030.0, 'init_ShelterA_1_214': 1030.0, 'init_ShelterA_1_217': 1030.0, 'init_ShelterA_1_182': 1040.0, 'init_ShelterA_1_216': 1040.0, 'init_ShelterA_1_247': 1050.0, 'init_ShelterA_1_249': 1050.0, 'init_ShelterA_1_258': 1060.0, 'init_ShelterA_1_248': 1070.0, 'init_ShelterA_1_250': 1070.0, 'init_ShelterA_1_251': 1070.0, 'init_ShelterA_1_252': 1070.0, 'init_ShelterA_1_253': 1070.0, 'init_ShelterA_1_254': 1070.0, 'init_ShelterA_1_255': 1070.0, 'init_ShelterA_1_260': 1070.0, 'init_ShelterA_1_264': 1070.0, 'init_ShelterA_1_278': 1140.0, 'init_ShelterA_1_273': 1150.0, 'init_ShelterA_1_274': 1150.0, 'init_ShelterA_1_276': 1150.0, 'init_ShelterA_2_286': 1160.0, 'init_ShelterA_1_228': 1200.0, 'init_ShelterA_1_232': 1210.0, 'init_ShelterA_1_223': 1220.0, 'init_ShelterA_1_230': 1220.0, 'init_ShelterA_1_235': 1220.0, 'init_ShelterA_1_229': 1230.0, 'init_ShelterA_1_289': 1230.0, 'init_ShelterA_1_290': 1230.0, 'init_ShelterA_1_291': 1230.0, 'init_ShelterA_1_292': 1230.0, 'init_ShelterA_1_293': 1230.0, 'init_ShelterA_1_294': 1240.0, 'init_ShelterA_1_233': 1280.0, 'init_ShelterA_2_265': 1280.0, 'init_ShelterA_2_301': 1280.0, 'init_ShelterA_1_231': 1290.0, 'init_ShelterA_1_234': 1290.0, 'init_ShelterA_1_263': 1300.0, 'init_ShelterA_1_256': 1310.0, 'init_ShelterA_1_261': 1310.0, 'init_ShelterA_2_305': 1310.0, 'init_ShelterA_1_259': 1320.0, 'init_ShelterA_2_310': 1320.0, 'init_ShelterA_1_266': 1330.0, 'init_ShelterA_1_306': 1330.0, 'init_ShelterA_1_307': 1330.0, 'init_ShelterA_1_308': 1330.0, 'init_ShelterA_1_309': 1330.0, 'init_ShelterA_1_311': 1330.0, 'init_ShelterA_1_312': 1330.0, 'init_ShelterA_1_270': 1350.0, 'init_ShelterA_1_236': 1360.0, 'init_ShelterA_1_238': 1360.0, 'init_ShelterA_1_240': 1360.0, 'init_ShelterA_1_241': 1360.0, 'init_ShelterA_1_242': 1360.0, 'init_ShelterA_1_245': 1360.0, 'init_ShelterA_1_246': 1360.0, 'init_ShelterA_1_268': 1360.0, 'init_ShelterA_1_243': 1370.0, 'init_ShelterA_1_257': 1370.0, 'init_ShelterA_1_272': 1390.0, 'init_ShelterA_1_280': 1390.0, 'init_ShelterA_1_282': 1390.0, 'init_ShelterA_1_281': 1400.0, 'init_ShelterA_1_279': 1410.0, 'init_ShelterA_1_325': 1410.0, 'init_ShelterA_1_329': 1410.0, 'init_ShelterA_1_337': 1410.0, 'init_ShelterA_1_339': 1410.0, 'init_ShelterA_1_285': 1430.0, 'init_ShelterA_2_288': 1430.0, 'init_ShelterA_1_283': 1440.0, 'init_ShelterA_1_284': 1440.0, 'init_ShelterA_1_343': 1440.0, 'init_ShelterA_1_344': 1440.0, 'init_ShelterA_1_297': 1450.0, 'init_ShelterA_2_295': 1450.0, 'init_ShelterA_2_296': 1450.0, 'init_ShelterA_1_277': 1460.0, 'init_ShelterA_1_271': 1470.0, 'init_ShelterA_1_313': 1470.0, 'init_ShelterA_1_315': 1470.0, 'init_ShelterA_1_316': 1470.0, 'init_ShelterA_1_314': 1480.0, 'init_ShelterA_2_354': 1480.0, 'init_ShelterA_1_345': 1490.0, 'init_ShelterA_1_352': 1490.0, 'init_ShelterA_1_353': 1490.0, 'init_ShelterA_1_298': 1500.0, 'init_ShelterA_1_299': 1500.0, 'init_ShelterA_1_347': 1500.0, 'init_ShelterA_1_356': 1500.0, 'init_ShelterA_1_357': 1500.0, 'init_ShelterA_1_302': 1510.0, 'init_ShelterA_1_303': 1510.0, 'init_ShelterA_1_300': 1520.0, 'init_ShelterA_1_304': 1520.0, 'init_ShelterA_1_317': 1520.0, 'init_ShelterA_1_318': 1520.0, 'init_ShelterA_1_319': 1530.0, 'init_ShelterA_2_375': 1550.0, 'init_ShelterA_1_324': 1560.0, 'init_ShelterA_1_331': 1560.0, 'init_ShelterA_1_368': 1560.0, 'init_ShelterA_1_369': 1560.0, 'init_ShelterA_1_370': 1560.0, 'init_ShelterA_1_371': 1560.0, 'init_ShelterA_1_372': 1560.0, 'init_ShelterA_1_373': 1560.0, 'init_ShelterA_1_376': 1560.0, 'init_ShelterA_1_328': 1570.0, 'init_ShelterA_1_374': 1570.0, 'init_ShelterA_1_323': 1610.0, 'init_ShelterA_1_330': 1610.0, 'init_ShelterA_1_332': 1610.0, 'init_ShelterA_1_333': 1610.0, 'init_ShelterA_1_334': 1610.0, 'init_ShelterA_1_335': 1610.0, 'init_ShelterA_1_336': 1610.0, 'init_ShelterA_1_340': 1610.0, 'init_ShelterA_1_326': 1620.0, 'init_ShelterA_1_341': 1620.0, 'init_ShelterA_1_342': 1640.0, 'init_ShelterA_1_348': 1650.0, 'init_ShelterA_1_349': 1650.0, 'init_ShelterA_1_358': 1650.0, 'init_ShelterA_1_351': 1660.0, 'init_ShelterA_1_355': 1660.0, 'init_ShelterA_1_360': 1660.0, 'init_ShelterA_1_361': 1660.0, 'init_ShelterA_2_392': 1660.0, 'init_ShelterA_2_397': 1660.0, 'init_ShelterA_1_338': 1670.0, 'init_ShelterA_1_350': 1670.0, 'init_ShelterA_1_359': 1670.0, 'init_ShelterA_1_388': 1670.0, 'init_ShelterA_1_395': 1670.0, 'init_ShelterA_1_346': 1700.0, 'init_ShelterA_1_364': 1820.0, 'init_ShelterA_1_365': 1820.0, 'init_ShelterA_1_363': 1830.0, 'init_ShelterA_1_366': 1830.0, 'init_ShelterA_1_387': 1870.0, 'init_ShelterA_1_399': 1870.0}
pedestrian_count:0
route_changed_vehicle_count:299
route_change_event_count:299
rate_vehicle_abandonment:0.00%
wrong_way_driving_count:0
vehicle_abandonment_count:0
normalcy_bias_route_change_count:163
majority_bias_route_change_count:136
lane_changed_vehicle_count:0
info_obtained_lanechange_count:0
elapsed_time_lanechange_count:0
majority_bias_lanechange_count:0

=== Job Result ===
end=2026-07-13T02:22:43+0900
elapsed_seconds=408
exit_code=0
status=SUCCESS
