=== Job Info ===
job_name=va_s8_e1.0_v1.0_r38
host=schubert
pid=126344
scenario=8
early_rate=1.0
v2v_rate=1.0
run_id=38
config=/home/katagi/vehicle-assistant-system/scenarios/JIP/configs/config_scenario_8.toml
output_dir=/home/katagi/vehicle-assistant-system/schubert_logs/va_s8_e1.0_v1.0_r38
start=2026-07-13T02:25:16+0900
python_version=Python 3.12.3
sumo_version=Eclipse SUMO sumo Version v1_23_1+0435-630512a

=== Command ===
cd /home/katagi/vehicle-assistant-system/schubert_logs/va_s8_e1.0_v1.0_r38
PYTHONPATH=/home/katagi/vehicle-assistant-system:/home/katagi/tmp/sumo/tools:/home/katagi/local/sumo/tools:/home/katagi/tmp/sumo/tools:/home/katagi/local/sumo/tools:/home/katagi/tmp/sumo/tools:/home/katagi/local/sumo/tools: python3 -W ignore::UserWarning -m scenarios.JIP.1-1-4.simulation.runner_simulator --nogui /home/katagi/vehicle-assistant-system/scenarios/JIP/configs/config_scenario_8.toml 1.0 1.0
simulation_pid=126364
Step #0.00 (0ms ?*RT. ?UPS, TraCI: 335ms, vehicles TOT 1 ACT 1 BUF 0)                     Step #100.00 (0ms ?*RT. ?UPS, TraCI: 18ms, vehicles TOT 26 ACT 26 BUF 0)                  Step #200.00 (0ms ?*RT. ?UPS, TraCI: 63ms, vehicles TOT 51 ACT 51 BUF 0)                  Step #300.00 (1ms ~= 1000.00*RT, ~77000.00UPS, TraCI: 55ms, vehicles TOT 77 ACT 77 BUF 0) Step #400.00 (0ms ?*RT. ?UPS, TraCI: 70ms, vehicles TOT 104 ACT 104 BUF 0)                Step #500.00 (1ms ~= 1000.00*RT, ~131000.00UPS, TraCI: 1732ms, vehicles TOT 131 ACT 131 BUStep #600.00 (1ms ~= 1000.00*RT, ~158000.00UPS, TraCI: 1570ms, vehicles TOT 158 ACT 158 BUStep #700.00 (1ms ~= 1000.00*RT, ~176000.00UPS, TraCI: 1990ms, vehicles TOT 198 ACT 176 BUStep #800.00 (1ms ~= 1000.00*RT, ~194000.00UPS, TraCI: 1190ms, vehicles TOT 235 ACT 194 BUStep #900.00 (1ms ~= 1000.00*RT, ~207000.00UPS, TraCI: 341ms, vehicles TOT 255 ACT 207 BUFStep #1000.00 (0ms ?*RT. ?UPS, TraCI: 1039ms, vehicles TOT 292 ACT 239 BUF 35)            Step #1100.00 (1ms ~= 1000.00*RT, ~256000.00UPS, TraCI: 967ms, vehicles TOT 322 ACT 256 BUStep #1200.00 (1ms ~= 1000.00*RT, ~287000.00UPS, TraCI: 1945ms, vehicles TOT 360 ACT 287 BStep #1300.00 (1ms ~= 1000.00*RT, ~298000.00UPS, TraCI: 2340ms, vehicles TOT 388 ACT 298 BStep #1400.00 (1ms ~= 1000.00*RT, ~318000.00UPS, TraCI: 2117ms, vehicles TOT 415 ACT 318 BStep #1500.00 (1ms ~= 1000.00*RT, ~334000.00UPS, TraCI: 1372ms, vehicles TOT 441 ACT 334 BStep #1600.00 (0ms ?*RT. ?UPS, TraCI: 1545ms, vehicles TOT 471 ACT 357 BUF 43)            Step #1700.00 (1ms ~= 1000.00*RT, ~386000.00UPS, TraCI: 1828ms, vehicles TOT 503 ACT 386 BStep #1800.00 (1ms ~= 1000.00*RT, ~400000.00UPS, TraCI: 2220ms, vehicles TOT 521 ACT 400 BStep #1900.00 (1ms ~= 1000.00*RT, ~400000.00UPS, TraCI: 1638ms, vehicles TOT 529 ACT 400 BStep #2000.00 (0ms ?*RT. ?UPS, TraCI: 731ms, vehicles TOT 529 ACT 400 BUF 0)              Step #2100.00 (1ms ~= 1000.00*RT, ~400000.00UPS, TraCI: 171ms, vehicles TOT 529 ACT 400 BUStep #2200.00 (0ms ?*RT. ?UPS, TraCI: 104ms, vehicles TOT 529 ACT 400 BUF 0)              Step #2300.00 (1ms ~= 1000.00*RT, ~400000.00UPS, TraCI: 89ms, vehicles TOT 529 ACT 400 BUFStep #2400.00 (0ms ?*RT. ?UPS, TraCI: 78ms, vehicles TOT 529 ACT 400 BUF 0)               Step #2500.00 (0ms ?*RT. ?UPS, TraCI: 79ms, vehicles TOT 529 ACT 400 BUF 0)               Step #2600.00 (0ms ?*RT. ?UPS, TraCI: 78ms, vehicles TOT 529 ACT 400 BUF 0)               Step #2700.00 (0ms ?*RT. ?UPS, TraCI: 79ms, vehicles TOT 529 ACT 400 BUF 0)               Step #2800.00 (1ms ~= 1000.00*RT, ~400000.00UPS, TraCI: 77ms, vehicles TOT 529 ACT 400 BUFStep #2900.00 (0ms ?*RT. ?UPS, TraCI: 78ms, vehicles TOT 529 ACT 400 BUF 0)               Step #3000.00 (0ms ?*RT. ?UPS, TraCI: 78ms, vehicles TOT 529 ACT 400 BUF 0)               
 Retrying in 1 seconds
出現数: {'A1': 355, 'A2': 45}
割合:
  Total: 400
  A1: 355 (88.75%)
  A2: 45 (11.25%)
  B1: 0 (0.00%)
  B2: 0 (0.00%)
mean elapsed_time: 529.32
OK all vehs arrived 
平均渋滞継続時間: 467.71秒
OK all vehicle abandonment were detected
274
126
===== Simlation Result Summary =====
avg_congestion_duration: 467.71 
arrival_time_by_vehID_dict:{'init_ShelterA_1_0': 216.0, 'init_ShelterA_1_1': 221.0, 'init_ShelterA_1_2': 226.0, 'init_ShelterA_1_3': 235.0, 'init_ShelterA_1_4': 240.0, 'init_ShelterA_1_5': 245.0, 'init_ShelterA_1_6': 279.0, 'init_ShelterA_1_7': 285.0, 'init_ShelterA_1_8': 291.0, 'init_ShelterA_1_9': 296.0, 'init_ShelterA_1_11': 301.0, 'init_ShelterA_1_12': 306.0, 'init_ShelterA_1_13': 312.0, 'init_ShelterA_1_14': 319.0, 'init_ShelterA_1_15': 327.0, 'init_ShelterA_1_16': 335.0, 'init_ShelterA_1_17': 344.0, 'init_ShelterA_1_18': 353.0, 'init_ShelterA_1_19': 361.0, 'init_ShelterA_1_20': 366.0, 'init_ShelterA_1_21': 372.0, 'init_ShelterA_1_22': 377.0, 'init_ShelterA_1_23': 383.0, 'init_ShelterA_1_24': 390.0, 'init_ShelterA_1_25': 397.0, 'init_ShelterA_1_26': 405.0, 'init_ShelterA_1_27': 414.0, 'init_ShelterA_2_10': 414.0, 'init_ShelterA_1_28': 423.0, 'init_ShelterA_1_29': 432.0, 'init_ShelterA_1_30': 441.0, 'init_ShelterA_1_31': 451.0, 'init_ShelterA_1_32': 461.0, 'init_ShelterA_1_33': 470.0, 'init_ShelterA_1_34': 480.0, 'init_ShelterA_1_35': 490.0, 'init_ShelterA_1_36': 499.0, 'init_ShelterA_2_40': 508.0, 'init_ShelterA_1_37': 509.0, 'init_ShelterA_1_38': 519.0, 'init_ShelterA_1_39': 528.0, 'init_ShelterA_1_41': 538.0, 'init_ShelterA_1_42': 548.0, 'init_ShelterA_1_43': 557.0, 'init_ShelterA_1_44': 567.0, 'init_ShelterA_1_45': 577.0, 'init_ShelterA_2_48': 580.0, 'init_ShelterA_2_50': 585.0, 'init_ShelterA_1_46': 586.0, 'init_ShelterA_1_47': 596.0, 'init_ShelterA_1_49': 605.0, 'init_ShelterA_1_51': 615.0, 'init_ShelterA_1_52': 624.0, 'init_ShelterA_1_53': 634.0, 'init_ShelterA_1_54': 644.0, 'init_ShelterA_1_55': 653.0, 'init_ShelterA_1_56': 662.0, 'init_ShelterA_1_59': 664.0, 'init_ShelterA_1_61': 666.0, 'init_ShelterA_1_62': 669.0, 'init_ShelterA_1_57': 672.0, 'init_ShelterA_1_64': 672.0, 'init_ShelterA_1_66': 676.0, 'init_ShelterA_1_67': 678.0, 'init_ShelterA_1_58': 681.0, 'init_ShelterA_1_68': 681.0, 'init_ShelterA_1_69': 684.0, 'init_ShelterA_1_70': 687.0, 'init_ShelterA_1_74': 690.0, 'init_ShelterA_1_60': 691.0, 'init_ShelterA_1_63': 700.0, 'init_ShelterA_1_65': 710.0, 'init_ShelterA_2_71': 712.0, 'init_ShelterA_1_72': 722.0, 'init_ShelterA_1_73': 732.0, 'init_ShelterA_1_76': 744.0, 'init_ShelterA_2_77': 746.0, 'init_ShelterA_2_85': 748.0, 'init_ShelterA_1_75': 750.0, 'init_ShelterA_2_90': 751.0, 'init_ShelterA_1_78': 752.0, 'init_ShelterA_2_91': 754.0, 'init_ShelterA_1_79': 755.0, 'init_ShelterA_1_80': 758.0, 'init_ShelterA_1_81': 761.0, 'init_ShelterA_1_93': 762.0, 'init_ShelterA_1_82': 764.0, 'init_ShelterA_2_95': 764.0, 'init_ShelterA_1_83': 767.0, 'init_ShelterA_1_84': 770.0, 'init_ShelterA_1_86': 773.0, 'init_ShelterA_1_98': 773.0, 'init_ShelterA_1_87': 776.0, 'init_ShelterA_1_99': 777.0, 'init_ShelterA_1_88': 779.0, 'init_ShelterA_2_108': 779.0, 'init_ShelterA_1_89': 782.0, 'init_ShelterA_1_92': 805.0, 'init_ShelterA_1_94': 814.0, 'init_ShelterA_1_96': 818.0, 'init_ShelterA_1_97': 824.0, 'init_ShelterA_1_115': 835.0, 'init_ShelterA_1_118': 845.0, 'init_ShelterA_1_100': 846.0, 'init_ShelterA_1_101': 853.0, 'init_ShelterA_1_102': 855.0, 'init_ShelterA_1_103': 857.0, 'init_ShelterA_1_104': 860.0, 'init_ShelterA_1_105': 872.0, 'init_ShelterA_1_106': 873.0, 'init_ShelterA_1_107': 876.0, 'init_ShelterA_2_130': 909.0, 'init_ShelterA_1_109': 912.0, 'init_ShelterA_1_110': 915.0, 'init_ShelterA_1_132': 927.0, 'init_ShelterA_1_111': 935.0, 'init_ShelterA_1_112': 937.0, 'init_ShelterA_1_113': 939.0, 'init_ShelterA_1_114': 941.0, 'init_ShelterA_1_135': 941.0, 'init_ShelterA_1_116': 944.0, 'init_ShelterA_1_117': 947.0, 'init_ShelterA_1_119': 950.0, 'init_ShelterA_1_120': 953.0, 'init_ShelterA_1_121': 956.0, 'init_ShelterA_1_122': 959.0, 'init_ShelterA_1_123': 962.0, 'init_ShelterA_1_124': 965.0, 'init_ShelterA_1_125': 973.0, 'init_ShelterA_1_126': 979.0, 'init_ShelterA_1_127': 989.0, 'init_ShelterA_1_128': 998.0, 'init_ShelterA_2_144': 998.0, 'init_ShelterA_1_129': 1000.0, 'init_ShelterA_1_131': 1010.0, 'init_ShelterA_1_133': 1012.0, 'init_ShelterA_1_134': 1040.0, 'init_ShelterA_1_136': 1042.0, 'init_ShelterA_1_137': 1044.0, 'init_ShelterA_1_138': 1058.0, 'init_ShelterA_1_139': 1060.0, 'init_ShelterA_1_140': 1062.0, 'init_ShelterA_1_141': 1065.0, 'init_ShelterA_1_142': 1097.0, 'init_ShelterA_1_143': 1099.0, 'init_ShelterA_1_145': 1101.0, 'init_ShelterA_1_146': 1103.0, 'init_ShelterA_1_147': 1106.0, 'newveh_ShelterA_1_158_15': 1109.0, 'init_ShelterA_1_148': 1111.0, 'newveh_ShelterA_1_153_14': 1116.0, 'init_ShelterA_1_149': 1118.0, 'newveh_ShelterA_1_178_21': 1120.0, 'newveh_ShelterA_1_169_23': 1124.0, 'newveh_ShelterA_2_150_0': 1140.0, 'init_ShelterA_1_164': 1142.0, 'init_ShelterA_1_165': 1144.0, 'newveh_ShelterA_2_168_13': 1154.0, 'newveh_ShelterA_2_167_12': 1161.0, 'newveh_ShelterA_2_166_11': 1167.0, 'newveh_ShelterA_2_162_10': 1175.0, 'newveh_ShelterA_2_161_9': 1179.0, 'init_ShelterA_1_187': 1183.0, 'newveh_ShelterA_2_160_8': 1184.0, 'init_ShelterA_1_188': 1191.0, 'newveh_ShelterA_1_175_24': 1195.0, 'init_ShelterA_2_190': 1197.0, 'newveh_ShelterA_2_159_7': 1199.0, 'newveh_ShelterA_2_157_6': 1207.0, 'newveh_ShelterA_2_156_5': 1212.0, 'newveh_ShelterA_2_155_4': 1218.0, 'newveh_ShelterA_2_154_3': 1223.0, 'newveh_ShelterA_2_152_2': 1228.0, 'newveh_ShelterA_2_151_1': 1233.0, 'newveh_ShelterA_2_163_16': 1239.0, 'newveh_ShelterA_2_173_17': 1244.0, 'newveh_ShelterA_2_171_18': 1250.0, 'newveh_ShelterA_2_170_19': 1258.0, 'newveh_ShelterA_2_180_22': 1262.0, 'newveh_ShelterA_2_172_20': 1267.0, 'init_ShelterA_1_203': 1274.0, 'init_ShelterA_1_204': 1280.0, 'init_ShelterA_1_189': 1284.0, 'init_ShelterA_1_205': 1285.0, 'init_ShelterA_1_206': 1292.0, 'init_ShelterA_1_207': 1299.0, 'init_ShelterA_1_191': 1300.0, 'init_ShelterA_2_208': 1301.0, 'init_ShelterA_1_209': 1309.0, 'init_ShelterA_1_210': 1315.0, 'newveh_ShelterA_1_195_39': 1319.0, 'newveh_ShelterA_2_174_25': 1319.0, 'newveh_ShelterA_1_198_40': 1324.0, 'newveh_ShelterA_2_176_26': 1326.0, 'newveh_ShelterA_2_177_27': 1332.0, 'newveh_ShelterA_2_179_28': 1337.0, 'newveh_ShelterA_2_184_32': 1343.0, 'newveh_ShelterA_2_183_31': 1350.0, 'newveh_ShelterA_2_182_30': 1358.0, 'newveh_ShelterA_2_181_29': 1365.0, 'init_ShelterA_1_215': 1370.0, 'newveh_ShelterA_2_185_33': 1371.0, 'newveh_ShelterA_2_186_34': 1376.0, 'init_ShelterA_1_217': 1377.0, 'init_ShelterA_1_211': 1378.0, 'init_ShelterA_1_218': 1382.0, 'init_ShelterA_1_221': 1388.0, 'init_ShelterA_1_222': 1393.0, 'newveh_ShelterA_2_197_38': 1399.0, 'init_ShelterA_1_223': 1400.0, 'init_ShelterA_1_224': 1407.0, 'newveh_ShelterA_2_196_37': 1407.0, 'init_ShelterA_1_226': 1414.0, 'newveh_ShelterA_2_193_36': 1415.0, 'newveh_ShelterA_2_192_35': 1421.0, 'init_ShelterA_1_227': 1422.0, 'init_ShelterA_1_213': 1424.0, 'init_ShelterA_1_230': 1428.0, 'newveh_ShelterA_2_202_45': 1429.0, 'init_ShelterA_1_231': 1433.0, 'newveh_ShelterA_2_201_44': 1433.0, 'init_ShelterA_1_234': 1437.0, 'init_ShelterA_1_235': 1456.0, 'init_ShelterA_1_236': 1461.0, 'newveh_ShelterA_2_220_68': 1462.0, 'init_ShelterA_1_238': 1470.0, 'newveh_ShelterA_2_200_43': 1471.0, 'newveh_ShelterA_2_199_42': 1482.0, 'init_ShelterA_1_216': 1484.0, 'init_ShelterA_1_255': 1486.0, 'newveh_ShelterA_2_194_41': 1490.0, 'init_ShelterA_1_219': 1492.0, 'newveh_ShelterA_2_214_47': 1505.0, 'newveh_ShelterA_2_257_88': 1547.0, 'newveh_ShelterA_2_212_46': 1551.0, 'init_ShelterA_1_269': 1558.0, 'init_ShelterA_1_272': 1573.0, 'init_ShelterA_1_273': 1579.0, 'init_ShelterA_1_279': 1583.0, 'init_ShelterA_1_237': 1584.0, 'init_ShelterA_1_239': 1586.0, 'init_ShelterA_1_240': 1588.0, 'init_ShelterA_1_241': 1590.0, 'init_ShelterA_1_242': 1592.0, 'init_ShelterA_1_243': 1595.0, 'init_ShelterA_1_244': 1598.0, 'init_ShelterA_1_251': 1600.0, 'init_ShelterA_1_252': 1603.0, 'init_ShelterA_1_253': 1606.0, 'init_ShelterA_1_256': 1609.0, 'init_ShelterA_1_258': 1612.0, 'newveh_ShelterA_1_245_53': 1633.0, 'init_ShelterA_1_285': 1640.0, 'newveh_ShelterA_2_268_96': 1642.0, 'newveh_ShelterA_1_247_54': 1645.0, 'newveh_ShelterA_1_259_55': 1652.0, 'init_ShelterA_1_287': 1657.0, 'init_ShelterA_1_289': 1661.0, 'newveh_ShelterA_2_233_48': 1677.0, 'init_ShelterA_1_265': 1680.0, 'init_ShelterA_1_266': 1682.0, 'init_ShelterA_1_267': 1684.0, 'newveh_ShelterA_2_225_49': 1691.0, 'newveh_ShelterA_2_232_52': 1696.0, 'newveh_ShelterA_2_229_51': 1705.0, 'newveh_ShelterA_2_228_50': 1726.0, 'init_ShelterA_1_270': 1728.0, 'init_ShelterA_1_274': 1730.0, 'init_ShelterA_1_276': 1732.0, 'init_ShelterA_1_280': 1734.0, 'init_ShelterA_1_281': 1736.0, 'init_ShelterA_1_309': 1736.0, 'init_ShelterA_1_310': 1744.0, 'init_ShelterA_2_312': 1746.0, 'newveh_ShelterA_2_304_98': 1746.0, 'newveh_ShelterA_1_271_66': 1754.0, 'newveh_ShelterA_2_307_99': 1754.0, 'init_ShelterA_1_282': 1757.0, 'init_ShelterA_1_286': 1759.0, 'init_ShelterA_1_288': 1761.0, 'newveh_ShelterA_1_283_67': 1763.0, 'init_ShelterA_2_320': 1765.0, 'init_ShelterA_2_322': 1767.0, 'newveh_ShelterA_2_246_56': 1767.0, 'newveh_ShelterA_1_284_72': 1773.0, 'newveh_ShelterA_2_263_64': 1773.0, 'newveh_ShelterA_2_262_63': 1778.0, 'newveh_ShelterA_2_261_62': 1783.0, 'newveh_ShelterA_2_260_61': 1790.0, 'newveh_ShelterA_2_254_60': 1799.0, 'newveh_ShelterA_2_250_59': 1804.0, 'newveh_ShelterA_2_249_58': 1808.0, 'init_ShelterA_1_323': 1819.0, 'init_ShelterA_1_326': 1827.0, 'init_ShelterA_2_327': 1829.0, 'init_ShelterA_1_328': 1837.0, 'newveh_ShelterA_2_248_57': 1842.0, 'init_ShelterA_1_329': 1843.0, 'init_ShelterA_1_331': 1850.0, 'init_ShelterA_1_332': 1858.0, 'newveh_ShelterA_2_264_65': 1864.0, 'init_ShelterA_1_303': 1866.0, 'newveh_ShelterA_1_294_73': 1867.0, 'init_ShelterA_1_308': 1868.0, 'init_ShelterA_1_311': 1871.0, 'init_ShelterA_1_321': 1873.0, 'init_ShelterA_1_333': 1876.0, 'newveh_ShelterA_2_275_69': 1880.0, 'init_ShelterA_1_335': 1885.0, 'newveh_ShelterA_2_277_70': 1885.0, 'newveh_ShelterA_2_278_71': 1890.0, 'init_ShelterA_1_336': 1893.0, 'newveh_ShelterA_2_325_108': 1896.0, 'init_ShelterA_1_337': 1899.0, 'newveh_ShelterA_2_324_107': 1901.0, 'init_ShelterA_1_340': 1904.0, 'newveh_ShelterA_2_334_114': 1905.0, 'init_ShelterA_1_341': 1908.0, 'init_ShelterA_1_330': 1911.0, 'init_ShelterA_1_342': 1917.0, 'init_ShelterA_1_343': 1922.0, 'newveh_ShelterA_1_298_81': 1927.0, 'newveh_ShelterA_1_305_86': 1936.0, 'newveh_ShelterA_1_306_87': 1944.0, 'init_ShelterA_1_339': 1948.0, 'init_ShelterA_1_351': 1948.0, 'init_ShelterA_1_352': 1953.0, 'newveh_ShelterA_2_297_80': 1966.0, 'newveh_ShelterA_2_296_79': 1990.0, 'init_ShelterA_1_353': 1993.0, 'init_ShelterA_2_354': 1995.0, 'newveh_ShelterA_2_295_78': 2002.0, 'init_ShelterA_1_355': 2004.0, 'init_ShelterA_1_357': 2010.0, 'newveh_ShelterA_2_293_77': 2011.0, 'init_ShelterA_1_358': 2016.0, 'newveh_ShelterA_2_292_76': 2020.0, 'init_ShelterA_1_359': 2023.0, 'newveh_ShelterA_2_290_74': 2027.0, 'init_ShelterA_1_360': 2030.0, 'newveh_ShelterA_2_291_75': 2033.0, 'init_ShelterA_1_361': 2037.0, 'newveh_ShelterA_2_302_85': 2038.0, 'newveh_ShelterA_1_313_89': 2045.0, 'newveh_ShelterA_2_301_84': 2046.0, 'newveh_ShelterA_2_300_83': 2050.0, 'init_ShelterA_1_367': 2051.0, 'newveh_ShelterA_2_299_82': 2055.0, 'init_ShelterA_1_368': 2056.0, 'init_ShelterA_1_369': 2060.0, 'init_ShelterA_2_372': 2086.0, 'newveh_ShelterA_2_371_120': 2088.0, 'init_ShelterA_1_356': 2114.0, 'newveh_ShelterA_2_387_123': 2132.0, 'newveh_ShelterA_2_314_90': 2156.0, 'init_ShelterA_1_370': 2158.0, 'newveh_ShelterA_2_315_91': 2167.0, 'newveh_ShelterA_2_316_92': 2173.0, 'newveh_ShelterA_2_385_122': 2178.0, 'init_ShelterA_1_396': 2180.0, 'newveh_ShelterA_1_338_97': 2185.0, 'newveh_ShelterA_2_384_121': 2185.0, 'newveh_ShelterA_1_346_101': 2190.0, 'newveh_ShelterA_2_390_125': 2192.0, 'newveh_ShelterA_2_388_124': 2199.0, 'newveh_ShelterA_1_374_115': 2202.0, 'newveh_ShelterA_2_378_126': 2208.0, 'newveh_ShelterA_1_365_109': 2209.0, 'newveh_ShelterA_1_386_116': 2214.0, 'newveh_ShelterA_2_389_128': 2216.0, 'newveh_ShelterA_2_317_93': 2225.0, 'newveh_ShelterA_2_318_94': 2234.0, 'newveh_ShelterA_2_319_95': 2255.0, 'init_ShelterA_1_373': 2258.0, 'init_ShelterA_1_375': 2260.0, 'init_ShelterA_1_376': 2262.0, 'init_ShelterA_1_377': 2264.0, 'init_ShelterA_1_379': 2266.0, 'init_ShelterA_1_381': 2268.0, 'init_ShelterA_1_382': 2270.0, 'init_ShelterA_1_383': 2272.0, 'init_ShelterA_1_391': 2275.0, 'newveh_ShelterA_1_398_119': 2275.0, 'init_ShelterA_1_392': 2277.0, 'init_ShelterA_1_393': 2280.0, 'init_ShelterA_1_394': 2283.0, 'newveh_ShelterA_2_380_127': 2290.0, 'init_ShelterA_1_395': 2295.0, 'newveh_ShelterA_2_344_100': 2312.0, 'newveh_ShelterA_2_362_110': 2319.0, 'newveh_ShelterA_2_350_106': 2325.0, 'newveh_ShelterA_2_349_105': 2331.0, 'newveh_ShelterA_2_348_104': 2337.0, 'newveh_ShelterA_2_347_103': 2344.0, 'newveh_ShelterA_2_345_102': 2352.0, 'newveh_ShelterA_2_366_113': 2359.0, 'newveh_ShelterA_2_364_112': 2364.0, 'newveh_ShelterA_2_363_111': 2368.0, 'newveh_ShelterA_2_397_117': 2373.0, 'newveh_ShelterA_2_399_118': 2378.0}
vehicle_abandant_time_by_pedestrianID_dict:{}
walking_distance_by_pedestrianID_dict:{}
route_change_time_by_vehID_dict:{'init_ShelterA_2_71': 440.0, 'init_ShelterA_1_61': 460.0, 'init_ShelterA_1_68': 460.0, 'init_ShelterA_1_69': 460.0, 'init_ShelterA_1_70': 460.0, 'init_ShelterA_1_62': 470.0, 'init_ShelterA_1_66': 470.0, 'init_ShelterA_1_67': 470.0, 'init_ShelterA_1_59': 480.0, 'init_ShelterA_1_64': 480.0, 'init_ShelterA_1_82': 520.0, 'init_ShelterA_2_77': 520.0, 'init_ShelterA_2_85': 520.0, 'init_ShelterA_1_74': 530.0, 'init_ShelterA_1_78': 530.0, 'init_ShelterA_1_80': 530.0, 'init_ShelterA_1_75': 540.0, 'init_ShelterA_1_79': 540.0, 'init_ShelterA_1_81': 550.0, 'init_ShelterA_1_84': 550.0, 'init_ShelterA_1_86': 550.0, 'init_ShelterA_1_87': 550.0, 'init_ShelterA_1_83': 560.0, 'init_ShelterA_1_88': 560.0, 'init_ShelterA_1_89': 560.0, 'init_ShelterA_2_90': 580.0, 'init_ShelterA_1_92': 590.0, 'init_ShelterA_1_94': 590.0, 'init_ShelterA_2_91': 590.0, 'init_ShelterA_1_100': 600.0, 'init_ShelterA_1_102': 600.0, 'init_ShelterA_1_103': 600.0, 'init_ShelterA_1_105': 600.0, 'init_ShelterA_1_96': 600.0, 'init_ShelterA_1_97': 600.0, 'init_ShelterA_2_95': 600.0, 'init_ShelterA_1_101': 610.0, 'init_ShelterA_1_104': 610.0, 'init_ShelterA_1_106': 610.0, 'init_ShelterA_1_107': 610.0, 'init_ShelterA_1_150': 640.0, 'init_ShelterA_1_151': 640.0, 'init_ShelterA_1_152': 640.0, 'init_ShelterA_1_154': 640.0, 'init_ShelterA_1_155': 640.0, 'init_ShelterA_1_156': 640.0, 'init_ShelterA_1_157': 640.0, 'init_ShelterA_1_159': 640.0, 'init_ShelterA_1_160': 640.0, 'init_ShelterA_1_161': 640.0, 'init_ShelterA_1_162': 640.0, 'init_ShelterA_1_166': 640.0, 'init_ShelterA_1_167': 640.0, 'init_ShelterA_1_168': 640.0, 'init_ShelterA_2_153': 640.0, 'init_ShelterA_2_158': 640.0, 'init_ShelterA_1_163': 650.0, 'init_ShelterA_2_108': 650.0, 'init_ShelterA_1_109': 670.0, 'init_ShelterA_1_110': 670.0, 'init_ShelterA_1_111': 670.0, 'init_ShelterA_1_114': 680.0, 'init_ShelterA_1_173': 680.0, 'init_ShelterA_1_113': 690.0, 'init_ShelterA_1_116': 690.0, 'init_ShelterA_1_117': 690.0, 'init_ShelterA_1_122': 690.0, 'init_ShelterA_1_125': 690.0, 'init_ShelterA_1_171': 690.0, 'init_ShelterA_1_112': 700.0, 'init_ShelterA_1_123': 700.0, 'init_ShelterA_1_124': 700.0, 'init_ShelterA_1_170': 700.0, 'init_ShelterA_1_172': 700.0, 'init_ShelterA_2_178': 700.0, 'init_ShelterA_1_121': 710.0, 'init_ShelterA_1_180': 710.0, 'init_ShelterA_2_169': 710.0, 'init_ShelterA_2_175': 710.0, 'init_ShelterA_1_174': 720.0, 'init_ShelterA_1_176': 720.0, 'init_ShelterA_1_177': 720.0, 'init_ShelterA_1_179': 720.0, 'init_ShelterA_1_119': 730.0, 'init_ShelterA_1_120': 730.0, 'init_ShelterA_1_181': 730.0, 'init_ShelterA_1_182': 730.0, 'init_ShelterA_1_183': 730.0, 'init_ShelterA_1_184': 730.0, 'init_ShelterA_1_126': 740.0, 'init_ShelterA_1_127': 740.0, 'init_ShelterA_1_185': 740.0, 'init_ShelterA_1_128': 750.0, 'init_ShelterA_1_131': 750.0, 'init_ShelterA_1_186': 750.0, 'init_ShelterA_2_130': 750.0, 'init_ShelterA_1_129': 760.0, 'init_ShelterA_1_133': 760.0, 'init_ShelterA_1_191': 760.0, 'init_ShelterA_2_190': 760.0, 'init_ShelterA_1_134': 770.0, 'init_ShelterA_1_136': 770.0, 'init_ShelterA_1_137': 770.0, 'init_ShelterA_1_189': 770.0, 'init_ShelterA_1_139': 780.0, 'init_ShelterA_1_140': 780.0, 'init_ShelterA_1_192': 790.0, 'init_ShelterA_1_193': 790.0, 'init_ShelterA_1_196': 800.0, 'init_ShelterA_1_197': 800.0, 'init_ShelterA_2_195': 800.0, 'init_ShelterA_2_198': 800.0, 'init_ShelterA_1_194': 810.0, 'init_ShelterA_1_199': 810.0, 'init_ShelterA_1_200': 810.0, 'init_ShelterA_1_201': 810.0, 'init_ShelterA_1_202': 810.0, 'init_ShelterA_1_211': 840.0, 'init_ShelterA_2_144': 840.0, 'init_ShelterA_1_141': 850.0, 'init_ShelterA_1_145': 850.0, 'init_ShelterA_1_146': 850.0, 'init_ShelterA_1_165': 850.0, 'init_ShelterA_1_142': 860.0, 'init_ShelterA_1_148': 860.0, 'init_ShelterA_1_164': 860.0, 'init_ShelterA_1_213': 860.0, 'init_ShelterA_1_138': 870.0, 'init_ShelterA_1_147': 870.0, 'init_ShelterA_1_212': 870.0, 'init_ShelterA_1_214': 870.0, 'init_ShelterA_1_143': 880.0, 'init_ShelterA_1_149': 910.0, 'init_ShelterA_1_233': 970.0, 'init_ShelterA_1_225': 980.0, 'init_ShelterA_1_228': 980.0, 'init_ShelterA_1_229': 980.0, 'init_ShelterA_1_232': 980.0, 'init_ShelterA_2_208': 1020.0, 'init_ShelterA_2_245': 1030.0, 'init_ShelterA_2_247': 1040.0, 'init_ShelterA_2_259': 1050.0, 'init_ShelterA_1_246': 1060.0, 'init_ShelterA_1_248': 1060.0, 'init_ShelterA_1_249': 1060.0, 'init_ShelterA_1_250': 1060.0, 'init_ShelterA_1_254': 1060.0, 'init_ShelterA_1_260': 1060.0, 'init_ShelterA_1_261': 1060.0, 'init_ShelterA_1_262': 1060.0, 'init_ShelterA_1_263': 1060.0, 'init_ShelterA_1_264': 1070.0, 'init_ShelterA_2_271': 1150.0, 'init_ShelterA_2_283': 1150.0, 'init_ShelterA_1_219': 1160.0, 'init_ShelterA_1_220': 1160.0, 'init_ShelterA_1_275': 1160.0, 'init_ShelterA_1_277': 1160.0, 'init_ShelterA_1_278': 1160.0, 'init_ShelterA_2_284': 1160.0, 'init_ShelterA_1_216': 1170.0, 'init_ShelterA_1_252': 1210.0, 'init_ShelterA_2_294': 1210.0, 'init_ShelterA_1_253': 1220.0, 'init_ShelterA_1_290': 1220.0, 'init_ShelterA_1_291': 1220.0, 'init_ShelterA_1_292': 1220.0, 'init_ShelterA_1_293': 1220.0, 'init_ShelterA_1_251': 1230.0, 'init_ShelterA_1_295': 1230.0, 'init_ShelterA_1_296': 1230.0, 'init_ShelterA_1_297': 1230.0, 'init_ShelterA_2_298': 1230.0, 'init_ShelterA_1_299': 1240.0, 'init_ShelterA_1_300': 1240.0, 'init_ShelterA_1_301': 1240.0, 'init_ShelterA_1_302': 1240.0, 'init_ShelterA_2_305': 1250.0, 'init_ShelterA_2_306': 1250.0, 'init_ShelterA_1_239': 1260.0, 'init_ShelterA_1_240': 1260.0, 'init_ShelterA_1_243': 1260.0, 'init_ShelterA_1_244': 1260.0, 'init_ShelterA_1_237': 1270.0, 'init_ShelterA_1_242': 1270.0, 'init_ShelterA_1_257': 1270.0, 'init_ShelterA_1_241': 1290.0, 'init_ShelterA_2_313': 1300.0, 'init_ShelterA_1_258': 1310.0, 'init_ShelterA_1_282': 1310.0, 'init_ShelterA_1_314': 1310.0, 'init_ShelterA_1_315': 1310.0, 'init_ShelterA_1_316': 1310.0, 'init_ShelterA_1_317': 1310.0, 'init_ShelterA_1_318': 1310.0, 'init_ShelterA_1_319': 1310.0, 'init_ShelterA_2_320': 1340.0, 'init_ShelterA_1_267': 1350.0, 'init_ShelterA_1_268': 1350.0, 'init_ShelterA_1_265': 1360.0, 'init_ShelterA_1_256': 1380.0, 'init_ShelterA_1_266': 1380.0, 'init_ShelterA_2_338': 1420.0, 'init_ShelterA_1_304': 1440.0, 'init_ShelterA_1_307': 1450.0, 'init_ShelterA_1_280': 1460.0, 'init_ShelterA_1_344': 1460.0, 'init_ShelterA_1_270': 1470.0, 'init_ShelterA_1_274': 1470.0, 'init_ShelterA_1_276': 1470.0, 'init_ShelterA_1_281': 1470.0, 'init_ShelterA_2_346': 1470.0, 'init_ShelterA_1_321': 1480.0, 'init_ShelterA_1_345': 1490.0, 'init_ShelterA_1_347': 1490.0, 'init_ShelterA_1_348': 1490.0, 'init_ShelterA_1_349': 1490.0, 'init_ShelterA_1_350': 1490.0, 'init_ShelterA_2_312': 1510.0, 'init_ShelterA_1_311': 1520.0, 'init_ShelterA_2_322': 1520.0, 'init_ShelterA_1_303': 1530.0, 'init_ShelterA_1_308': 1530.0, 'init_ShelterA_1_324': 1530.0, 'init_ShelterA_1_325': 1530.0, 'init_ShelterA_1_288': 1540.0, 'init_ShelterA_1_286': 1550.0, 'init_ShelterA_1_330': 1560.0, 'init_ShelterA_2_365': 1570.0, 'init_ShelterA_1_362': 1580.0, 'init_ShelterA_1_363': 1580.0, 'init_ShelterA_1_364': 1580.0, 'init_ShelterA_1_366': 1580.0, 'init_ShelterA_2_327': 1580.0, 'init_ShelterA_1_334': 1610.0, 'init_ShelterA_2_374': 1620.0, 'init_ShelterA_2_386': 1650.0, 'init_ShelterA_2_354': 1690.0, 'init_ShelterA_1_397': 1710.0, 'init_ShelterA_1_399': 1710.0, 'init_ShelterA_2_398': 1710.0, 'init_ShelterA_1_339': 1720.0, 'init_ShelterA_1_356': 1790.0, 'init_ShelterA_1_371': 1790.0, 'init_ShelterA_2_372': 1850.0, 'init_ShelterA_1_379': 1860.0, 'init_ShelterA_1_381': 1860.0, 'init_ShelterA_1_382': 1860.0, 'init_ShelterA_1_384': 1860.0, 'init_ShelterA_1_385': 1860.0, 'init_ShelterA_1_387': 1860.0, 'init_ShelterA_1_375': 1870.0, 'init_ShelterA_1_376': 1870.0, 'init_ShelterA_1_377': 1870.0, 'init_ShelterA_1_388': 1870.0, 'init_ShelterA_1_390': 1870.0, 'init_ShelterA_1_373': 1880.0, 'init_ShelterA_1_378': 1880.0, 'init_ShelterA_1_380': 1890.0, 'init_ShelterA_1_389': 1890.0, 'init_ShelterA_1_393': 1890.0, 'init_ShelterA_1_394': 1890.0, 'init_ShelterA_1_395': 1890.0, 'init_ShelterA_1_391': 1900.0, 'init_ShelterA_1_392': 1900.0, 'init_ShelterA_1_370': 1910.0, 'init_ShelterA_1_383': 1930.0}
pedestrian_count:0
route_changed_vehicle_count:267
route_change_event_count:267
rate_vehicle_abandonment:0.00%
wrong_way_driving_count:0
vehicle_abandonment_count:0
normalcy_bias_route_change_count:153
majority_bias_route_change_count:114
lane_changed_vehicle_count:0
info_obtained_lanechange_count:0
elapsed_time_lanechange_count:0
majority_bias_lanechange_count:0

=== Job Result ===
end=2026-07-13T02:32:28+0900
elapsed_seconds=432
exit_code=0
status=SUCCESS
