=== Job Info ===
job_name=va_s13_e1.0_v1.0_r3
host=schubert
pid=138482
scenario=13
early_rate=1.0
v2v_rate=1.0
run_id=3
config=/home/katagi/vehicle-assistant-system/scenarios/JIP/configs/config_scenario_13.toml
output_dir=/home/katagi/vehicle-assistant-system/schubert_logs/va_s13_e1.0_v1.0_r3
start=2026-07-13T03:25:04+0900
python_version=Python 3.12.3
sumo_version=Eclipse SUMO sumo Version v1_23_1+0435-630512a

=== Command ===
cd /home/katagi/vehicle-assistant-system/schubert_logs/va_s13_e1.0_v1.0_r3
PYTHONPATH=/home/katagi/vehicle-assistant-system:/home/katagi/tmp/sumo/tools:/home/katagi/local/sumo/tools:/home/katagi/tmp/sumo/tools:/home/katagi/local/sumo/tools:/home/katagi/tmp/sumo/tools:/home/katagi/local/sumo/tools: python3 -W ignore::UserWarning -m scenarios.JIP.1-1-4.simulation.runner_simulator --nogui /home/katagi/vehicle-assistant-system/scenarios/JIP/configs/config_scenario_13.toml 1.0 1.0
simulation_pid=138502
Step #0.00 (0ms ?*RT. ?UPS, TraCI: 335ms, vehicles TOT 1 ACT 1 BUF 0)                     Step #100.00 (0ms ?*RT. ?UPS, TraCI: 18ms, vehicles TOT 26 ACT 26 BUF 0)                  Step #200.00 (0ms ?*RT. ?UPS, TraCI: 39ms, vehicles TOT 51 ACT 51 BUF 0)                  Step #300.00 (0ms ?*RT. ?UPS, TraCI: 54ms, vehicles TOT 77 ACT 77 BUF 0)                  Step #400.00 (0ms ?*RT. ?UPS, TraCI: 73ms, vehicles TOT 104 ACT 104 BUF 0)                Step #500.00 (0ms ?*RT. ?UPS, TraCI: 2170ms, vehicles TOT 131 ACT 131 BUF 0)              Step #600.00 (1ms ~= 1000.00*RT, ~158000.00UPS, TraCI: 1936ms, vehicles TOT 158 ACT 158 BUStep #700.00 (1ms ~= 1000.00*RT, ~177000.00UPS, TraCI: 2319ms, vehicles TOT 185 ACT 177 BUStep #800.00 (0ms ?*RT. ?UPS, TraCI: 1422ms, vehicles TOT 205 ACT 190 BUF 25)             Step #900.00 (0ms ?*RT. ?UPS, TraCI: 1863ms, vehicles TOT 237 ACT 216 BUF 28)             Step #1000.00 (1ms ~= 1000.00*RT, ~236000.00UPS, TraCI: 1079ms, vehicles TOT 269 ACT 236 BStep #1100.00 (1ms ~= 1000.00*RT, ~257000.00UPS, TraCI: 1369ms, vehicles TOT 302 ACT 257 BStep #1200.00 (1ms ~= 1000.00*RT, ~284000.00UPS, TraCI: 1317ms, vehicles TOT 331 ACT 284 BStep #1300.00 (1ms ~= 1000.00*RT, ~303000.00UPS, TraCI: 2018ms, vehicles TOT 356 ACT 303 BStep #1400.00 (1ms ~= 1000.00*RT, ~323000.00UPS, TraCI: 2234ms, vehicles TOT 392 ACT 323 BStep #1500.00 (1ms ~= 1000.00*RT, ~339000.00UPS, TraCI: 2187ms, vehicles TOT 427 ACT 339 BStep #1600.00 (0ms ?*RT. ?UPS, TraCI: 1344ms, vehicles TOT 456 ACT 363 BUF 37)            Step #1700.00 (1ms ~= 1000.00*RT, ~387000.00UPS, TraCI: 1829ms, vehicles TOT 494 ACT 387 BStep #1800.00 (1ms ~= 1000.00*RT, ~400000.00UPS, TraCI: 955ms, vehicles TOT 509 ACT 400 BUStep #1900.00 (1ms ~= 1000.00*RT, ~400000.00UPS, TraCI: 199ms, vehicles TOT 509 ACT 400 BUStep #2000.00 (1ms ~= 1000.00*RT, ~400000.00UPS, TraCI: 117ms, vehicles TOT 509 ACT 400 BUStep #2100.00 (0ms ?*RT. ?UPS, TraCI: 117ms, vehicles TOT 509 ACT 400 BUF 0)              Step #2200.00 (0ms ?*RT. ?UPS, TraCI: 103ms, vehicles TOT 509 ACT 400 BUF 0)              Step #2300.00 (0ms ?*RT. ?UPS, TraCI: 92ms, vehicles TOT 509 ACT 400 BUF 0)               Step #2400.00 (0ms ?*RT. ?UPS, TraCI: 77ms, vehicles TOT 509 ACT 400 BUF 0)               Step #2500.00 (0ms ?*RT. ?UPS, TraCI: 79ms, vehicles TOT 509 ACT 400 BUF 0)               Step #2600.00 (0ms ?*RT. ?UPS, TraCI: 76ms, vehicles TOT 509 ACT 400 BUF 0)               Step #2700.00 (0ms ?*RT. ?UPS, TraCI: 78ms, vehicles TOT 509 ACT 400 BUF 0)               Step #2800.00 (0ms ?*RT. ?UPS, TraCI: 78ms, vehicles TOT 509 ACT 400 BUF 0)               Step #2900.00 (0ms ?*RT. ?UPS, TraCI: 78ms, vehicles TOT 509 ACT 400 BUF 0)               Step #3000.00 (0ms ?*RT. ?UPS, TraCI: 78ms, vehicles TOT 509 ACT 400 BUF 0)               
 Retrying in 1 seconds
出現数: {'A1': 365, 'A2': 35}
割合:
  Total: 400
  A1: 365 (91.25%)
  A2: 35 (8.75%)
  B1: 0 (0.00%)
  B2: 0 (0.00%)
mean elapsed_time: 546.425
OK all vehs arrived 
平均渋滞継続時間: 481.63秒
OK all vehicle abandonment were detected
290
110
===== Simlation Result Summary =====
avg_congestion_duration: 481.63 
arrival_time_by_vehID_dict:{'init_ShelterA_1_0': 206.0, 'init_ShelterA_1_1': 211.0, 'init_ShelterA_1_2': 219.0, 'init_ShelterA_1_3': 225.0, 'init_ShelterA_1_4': 231.0, 'init_ShelterA_1_5': 237.0, 'init_ShelterA_1_6': 242.0, 'init_ShelterA_1_7': 246.0, 'init_ShelterA_1_8': 286.0, 'init_ShelterA_1_9': 293.0, 'init_ShelterA_1_10': 299.0, 'init_ShelterA_1_11': 306.0, 'init_ShelterA_1_12': 313.0, 'init_ShelterA_1_13': 320.0, 'init_ShelterA_1_14': 328.0, 'init_ShelterA_1_15': 337.0, 'init_ShelterA_1_17': 346.0, 'init_ShelterA_1_18': 356.0, 'init_ShelterA_1_20': 365.0, 'init_ShelterA_1_21': 374.0, 'init_ShelterA_1_22': 383.0, 'init_ShelterA_1_23': 392.0, 'init_ShelterA_1_24': 401.0, 'init_ShelterA_2_16': 407.0, 'init_ShelterA_1_25': 411.0, 'init_ShelterA_2_19': 412.0, 'init_ShelterA_1_26': 420.0, 'init_ShelterA_1_27': 430.0, 'init_ShelterA_1_28': 440.0, 'init_ShelterA_1_29': 449.0, 'init_ShelterA_1_30': 459.0, 'init_ShelterA_1_31': 469.0, 'init_ShelterA_1_32': 478.0, 'init_ShelterA_1_33': 488.0, 'init_ShelterA_1_34': 498.0, 'init_ShelterA_2_39': 504.0, 'init_ShelterA_1_35': 507.0, 'init_ShelterA_1_36': 517.0, 'init_ShelterA_1_37': 526.0, 'init_ShelterA_1_38': 536.0, 'init_ShelterA_1_40': 545.0, 'init_ShelterA_1_41': 555.0, 'init_ShelterA_1_42': 565.0, 'init_ShelterA_1_43': 574.0, 'init_ShelterA_1_44': 584.0, 'init_ShelterA_1_45': 593.0, 'init_ShelterA_2_55': 595.0, 'init_ShelterA_1_46': 603.0, 'init_ShelterA_1_47': 612.0, 'init_ShelterA_1_48': 622.0, 'init_ShelterA_1_49': 631.0, 'init_ShelterA_1_59': 638.0, 'init_ShelterA_1_50': 640.0, 'init_ShelterA_1_51': 650.0, 'init_ShelterA_1_52': 659.0, 'init_ShelterA_1_53': 668.0, 'init_ShelterA_1_54': 678.0, 'init_ShelterA_1_56': 687.0, 'init_ShelterA_1_57': 696.0, 'init_ShelterA_1_58': 705.0, 'init_ShelterA_1_60': 715.0, 'init_ShelterA_1_76': 716.0, 'init_ShelterA_1_61': 724.0, 'init_ShelterA_1_77': 727.0, 'init_ShelterA_1_78': 730.0, 'init_ShelterA_1_62': 733.0, 'init_ShelterA_1_79': 740.0, 'init_ShelterA_1_63': 742.0, 'init_ShelterA_1_82': 742.0, 'init_ShelterA_1_83': 745.0, 'init_ShelterA_1_84': 748.0, 'init_ShelterA_1_64': 751.0, 'init_ShelterA_1_85': 751.0, 'init_ShelterA_1_65': 760.0, 'init_ShelterA_1_87': 762.0, 'init_ShelterA_1_88': 764.0, 'init_ShelterA_1_89': 768.0, 'init_ShelterA_1_66': 769.0, 'init_ShelterA_1_90': 770.0, 'init_ShelterA_1_67': 778.0, 'init_ShelterA_1_91': 779.0, 'init_ShelterA_1_92': 781.0, 'init_ShelterA_1_68': 787.0, 'init_ShelterA_1_69': 796.0, 'init_ShelterA_1_70': 805.0, 'init_ShelterA_1_94': 809.0, 'init_ShelterA_1_71': 813.0, 'init_ShelterA_1_95': 813.0, 'init_ShelterA_1_72': 822.0, 'init_ShelterA_1_97': 822.0, 'init_ShelterA_1_98': 824.0, 'init_ShelterA_1_73': 831.0, 'init_ShelterA_1_99': 833.0, 'init_ShelterA_1_100': 835.0, 'init_ShelterA_1_101': 838.0, 'init_ShelterA_1_74': 840.0, 'init_ShelterA_1_102': 841.0, 'init_ShelterA_1_75': 848.0, 'init_ShelterA_2_80': 851.0, 'init_ShelterA_2_81': 853.0, 'init_ShelterA_1_104': 854.0, 'init_ShelterA_2_86': 855.0, 'init_ShelterA_1_105': 856.0, 'init_ShelterA_1_106': 858.0, 'init_ShelterA_1_107': 861.0, 'init_ShelterA_1_93': 867.0, 'init_ShelterA_2_96': 869.0, 'init_ShelterA_2_103': 872.0, 'init_ShelterA_2_108': 874.0, 'init_ShelterA_1_109': 882.0, 'init_ShelterA_2_111': 884.0, 'init_ShelterA_2_113': 886.0, 'init_ShelterA_1_110': 895.0, 'init_ShelterA_1_128': 914.0, 'init_ShelterA_2_134': 917.0, 'init_ShelterA_1_112': 931.0, 'init_ShelterA_1_114': 933.0, 'init_ShelterA_1_115': 936.0, 'init_ShelterA_1_116': 939.0, 'init_ShelterA_1_117': 942.0, 'init_ShelterA_1_118': 945.0, 'init_ShelterA_1_119': 948.0, 'init_ShelterA_1_120': 951.0, 'init_ShelterA_1_121': 953.0, 'init_ShelterA_1_122': 956.0, 'init_ShelterA_1_123': 959.0, 'init_ShelterA_1_124': 962.0, 'init_ShelterA_1_125': 965.0, 'init_ShelterA_1_126': 968.0, 'init_ShelterA_1_127': 984.0, 'init_ShelterA_1_129': 997.0, 'init_ShelterA_1_130': 1008.0, 'init_ShelterA_1_131': 1009.0, 'init_ShelterA_1_148': 1017.0, 'init_ShelterA_1_132': 1023.0, 'init_ShelterA_1_150': 1024.0, 'init_ShelterA_1_133': 1025.0, 'init_ShelterA_1_135': 1027.0, 'init_ShelterA_1_136': 1030.0, 'init_ShelterA_1_137': 1033.0, 'init_ShelterA_1_138': 1052.0, 'init_ShelterA_1_139': 1054.0, 'init_ShelterA_1_140': 1056.0, 'init_ShelterA_1_141': 1058.0, 'init_ShelterA_1_142': 1063.0, 'newveh_ShelterA_1_161_6': 1107.0, 'init_ShelterA_1_143': 1115.0, 'init_ShelterA_1_144': 1117.0, 'init_ShelterA_1_145': 1119.0, 'init_ShelterA_1_146': 1122.0, 'init_ShelterA_1_174': 1123.0, 'init_ShelterA_1_147': 1126.0, 'init_ShelterA_1_149': 1128.0, 'init_ShelterA_1_151': 1131.0, 'init_ShelterA_1_156': 1134.0, 'init_ShelterA_1_158': 1137.0, 'init_ShelterA_1_159': 1139.0, 'init_ShelterA_1_162': 1150.0, 'init_ShelterA_1_163': 1152.0, 'init_ShelterA_1_164': 1155.0, 'init_ShelterA_1_165': 1157.0, 'init_ShelterA_1_166': 1159.0, 'init_ShelterA_1_182': 1189.0, 'init_ShelterA_1_167': 1197.0, 'init_ShelterA_1_168': 1199.0, 'init_ShelterA_1_188': 1201.0, 'newveh_ShelterA_1_172_8': 1207.0, 'newveh_ShelterA_1_185_10': 1211.0, 'newveh_ShelterA_2_152_0': 1219.0, 'newveh_ShelterA_2_160_5': 1228.0, 'newveh_ShelterA_2_157_4': 1233.0, 'newveh_ShelterA_2_155_3': 1237.0, 'newveh_ShelterA_2_154_2': 1246.0, 'init_ShelterA_2_198': 1261.0, 'newveh_ShelterA_2_153_1': 1266.0, 'init_ShelterA_1_170': 1269.0, 'init_ShelterA_2_200': 1270.0, 'init_ShelterA_1_171': 1271.0, 'init_ShelterA_1_175': 1273.0, 'init_ShelterA_1_176': 1275.0, 'init_ShelterA_1_202': 1285.0, 'init_ShelterA_1_204': 1290.0, 'newveh_ShelterA_2_169_7': 1293.0, 'init_ShelterA_1_177': 1295.0, 'init_ShelterA_1_178': 1297.0, 'init_ShelterA_1_179': 1299.0, 'init_ShelterA_1_206': 1299.0, 'init_ShelterA_1_180': 1302.0, 'init_ShelterA_1_181': 1305.0, 'init_ShelterA_1_207': 1305.0, 'init_ShelterA_1_183': 1308.0, 'init_ShelterA_1_208': 1310.0, 'init_ShelterA_1_184': 1311.0, 'init_ShelterA_1_186': 1314.0, 'init_ShelterA_1_210': 1314.0, 'init_ShelterA_1_189': 1316.0, 'init_ShelterA_1_190': 1320.0, 'init_ShelterA_1_191': 1322.0, 'newveh_ShelterA_2_173_9': 1330.0, 'newveh_ShelterA_2_187_11': 1335.0, 'init_ShelterA_1_195': 1337.0, 'init_ShelterA_1_196': 1343.0, 'init_ShelterA_1_197': 1353.0, 'init_ShelterA_1_199': 1358.0, 'init_ShelterA_1_201': 1360.0, 'init_ShelterA_1_224': 1367.0, 'init_ShelterA_1_203': 1368.0, 'init_ShelterA_1_205': 1375.0, 'init_ShelterA_1_227': 1384.0, 'newveh_ShelterA_1_215_17': 1403.0, 'newveh_ShelterA_2_192_12': 1408.0, 'newveh_ShelterA_2_194_14': 1417.0, 'newveh_ShelterA_2_193_13': 1428.0, 'init_ShelterA_1_212': 1430.0, 'init_ShelterA_1_213': 1432.0, 'newveh_ShelterA_2_223_44': 1437.0, 'init_ShelterA_1_217': 1459.0, 'init_ShelterA_1_218': 1461.0, 'init_ShelterA_1_220': 1463.0, 'init_ShelterA_1_221': 1465.0, 'init_ShelterA_1_222': 1467.0, 'init_ShelterA_1_225': 1469.0, 'init_ShelterA_1_244': 1469.0, 'init_ShelterA_1_226': 1472.0, 'init_ShelterA_1_228': 1476.0, 'init_ShelterA_1_245': 1476.0, 'init_ShelterA_1_229': 1478.0, 'init_ShelterA_1_246': 1481.0, 'init_ShelterA_1_247': 1487.0, 'init_ShelterA_1_235': 1490.0, 'init_ShelterA_1_240': 1492.0, 'init_ShelterA_1_248': 1493.0, 'init_ShelterA_1_250': 1498.0, 'init_ShelterA_1_253': 1502.0, 'newveh_ShelterA_2_214_15': 1516.0, 'newveh_ShelterA_2_216_16': 1522.0, 'newveh_ShelterA_2_219_20': 1527.0, 'init_ShelterA_1_265': 1550.0, 'init_ShelterA_2_266': 1552.0, 'init_ShelterA_1_267': 1559.0, 'init_ShelterA_1_269': 1563.0, 'newveh_ShelterA_2_211_19': 1572.0, 'init_ShelterA_1_274': 1574.0, 'newveh_ShelterA_2_209_18': 1586.0, 'init_ShelterA_1_249': 1588.0, 'init_ShelterA_1_251': 1591.0, 'init_ShelterA_1_252': 1593.0, 'newveh_ShelterA_2_230_21': 1613.0, 'newveh_ShelterA_2_237_27': 1620.0, 'newveh_ShelterA_2_236_26': 1629.0, 'newveh_ShelterA_2_234_25': 1633.0, 'init_ShelterA_2_288': 1634.0, 'newveh_ShelterA_2_233_24': 1638.0, 'newveh_ShelterA_2_272_63': 1644.0, 'newveh_ShelterA_2_270_62': 1649.0, 'newveh_ShelterA_1_259_33': 1656.0, 'newveh_ShelterA_2_268_61': 1657.0, 'newveh_ShelterA_2_232_23': 1662.0, 'newveh_ShelterA_2_231_22': 1666.0, 'newveh_ShelterA_2_242_31': 1675.0, 'newveh_ShelterA_2_241_30': 1682.0, 'newveh_ShelterA_2_238_28': 1687.0, 'newveh_ShelterA_2_239_29': 1696.0, 'newveh_ShelterA_2_243_32': 1716.0, 'init_ShelterA_1_271': 1718.0, 'init_ShelterA_1_273': 1720.0, 'init_ShelterA_1_275': 1722.0, 'init_ShelterA_1_276': 1724.0, 'init_ShelterA_1_277': 1726.0, 'init_ShelterA_1_278': 1729.0, 'init_ShelterA_1_297': 1730.0, 'init_ShelterA_1_280': 1732.0, 'init_ShelterA_1_281': 1735.0, 'init_ShelterA_1_283': 1738.0, 'init_ShelterA_1_284': 1741.0, 'init_ShelterA_1_285': 1744.0, 'init_ShelterA_1_304': 1745.0, 'init_ShelterA_1_286': 1754.0, 'init_ShelterA_1_287': 1755.0, 'newveh_ShelterA_2_257_34': 1774.0, 'newveh_ShelterA_2_254_35': 1783.0, 'newveh_ShelterA_2_264_43': 1788.0, 'newveh_ShelterA_2_263_42': 1792.0, 'newveh_ShelterA_2_262_41': 1798.0, 'newveh_ShelterA_2_261_40': 1803.0, 'newveh_ShelterA_2_260_39': 1809.0, 'init_ShelterA_1_321': 1820.0, 'newveh_ShelterA_2_258_38': 1821.0, 'init_ShelterA_1_322': 1828.0, 'newveh_ShelterA_2_256_37': 1830.0, 'newveh_ShelterA_1_279_46': 1833.0, 'init_ShelterA_1_325': 1837.0, 'init_ShelterA_1_326': 1841.0, 'newveh_ShelterA_2_255_36': 1844.0, 'init_ShelterA_1_295': 1846.0, 'init_ShelterA_1_296': 1848.0, 'init_ShelterA_1_298': 1850.0, 'init_ShelterA_1_299': 1852.0, 'init_ShelterA_1_300': 1854.0, 'init_ShelterA_1_302': 1857.0, 'init_ShelterA_1_305': 1859.0, 'init_ShelterA_1_306': 1862.0, 'init_ShelterA_1_307': 1864.0, 'init_ShelterA_1_308': 1869.0, 'init_ShelterA_1_309': 1871.0, 'init_ShelterA_1_311': 1874.0, 'newveh_ShelterA_2_316_89': 1892.0, 'newveh_ShelterA_2_301_88': 1901.0, 'newveh_ShelterA_2_334_93': 1907.0, 'init_ShelterA_1_313': 1909.0, 'init_ShelterA_1_314': 1911.0, 'newveh_ShelterA_2_282_45': 1919.0, 'init_ShelterA_1_323': 1921.0, 'newveh_ShelterA_1_303_53': 1926.0, 'newveh_ShelterA_1_312_54': 1932.0, 'newveh_ShelterA_2_335_94': 1939.0, 'init_ShelterA_1_324': 1941.0, 'newveh_ShelterA_2_289_47': 1947.0, 'init_ShelterA_1_333': 1950.0, 'newveh_ShelterA_2_294_52': 1962.0, 'newveh_ShelterA_2_293_51': 1969.0, 'newveh_ShelterA_2_292_50': 1975.0, 'newveh_ShelterA_2_291_49': 1983.0, 'newveh_ShelterA_2_290_48': 1988.0, 'init_ShelterA_1_342': 1990.0, 'init_ShelterA_1_343': 1992.0, 'init_ShelterA_1_344': 1994.0, 'init_ShelterA_2_387': 2016.0, 'newveh_ShelterA_2_364_106': 2033.0, 'init_ShelterA_1_345': 2036.0, 'init_ShelterA_1_346': 2038.0, 'init_ShelterA_1_347': 2040.0, 'init_ShelterA_1_348': 2042.0, 'init_ShelterA_1_349': 2044.0, 'init_ShelterA_1_350': 2046.0, 'init_ShelterA_1_368': 2048.0, 'init_ShelterA_1_370': 2051.0, 'newveh_ShelterA_2_315_55': 2062.0, 'init_ShelterA_1_371': 2064.0, 'newveh_ShelterA_2_319_59': 2072.0, 'newveh_ShelterA_2_318_58': 2079.0, 'newveh_ShelterA_2_317_57': 2086.0, 'newveh_ShelterA_1_329_64': 2089.0, 'newveh_ShelterA_2_358_105': 2093.0, 'newveh_ShelterA_1_339_67': 2095.0, 'newveh_ShelterA_2_357_104': 2101.0, 'newveh_ShelterA_1_330_66': 2102.0, 'newveh_ShelterA_1_341_68': 2106.0, 'newveh_ShelterA_2_355_103': 2108.0, 'newveh_ShelterA_1_359_76': 2110.0, 'newveh_ShelterA_2_353_102': 2117.0, 'newveh_ShelterA_2_369_107': 2126.0, 'newveh_ShelterA_2_385_108': 2136.0, 'init_ShelterA_1_372': 2139.0, 'init_ShelterA_1_373': 2141.0, 'newveh_ShelterA_2_310_56': 2150.0, 'newveh_ShelterA_2_320_60': 2172.0, 'init_ShelterA_1_377': 2174.0, 'newveh_ShelterA_1_361_82': 2175.0, 'init_ShelterA_1_378': 2177.0, 'init_ShelterA_1_379': 2179.0, 'init_ShelterA_1_380': 2181.0, 'init_ShelterA_1_381': 2183.0, 'newveh_ShelterA_1_356_81': 2183.0, 'init_ShelterA_1_382': 2185.0, 'init_ShelterA_1_383': 2187.0, 'init_ShelterA_1_384': 2189.0, 'init_ShelterA_1_386': 2192.0, 'init_ShelterA_1_388': 2194.0, 'init_ShelterA_1_389': 2197.0, 'init_ShelterA_1_390': 2200.0, 'init_ShelterA_1_391': 2203.0, 'init_ShelterA_1_392': 2206.0, 'newveh_ShelterA_1_365_87': 2206.0, 'newveh_ShelterA_1_375_92': 2210.0, 'newveh_ShelterA_2_328_65': 2214.0, 'newveh_ShelterA_2_327_69': 2220.0, 'newveh_ShelterA_2_362_79': 2228.0, 'newveh_ShelterA_2_363_80': 2236.0, 'newveh_ShelterA_2_360_78': 2244.0, 'newveh_ShelterA_2_340_75': 2253.0, 'newveh_ShelterA_2_338_74': 2261.0, 'newveh_ShelterA_2_337_73': 2269.0, 'newveh_ShelterA_2_336_72': 2276.0, 'newveh_ShelterA_2_332_71': 2282.0, 'newveh_ShelterA_2_331_70': 2287.0, 'newveh_ShelterA_2_351_77': 2291.0, 'newveh_ShelterA_2_366_85': 2297.0, 'newveh_ShelterA_2_354_84': 2306.0, 'newveh_ShelterA_2_352_83': 2313.0, 'newveh_ShelterA_2_367_86': 2318.0, 'newveh_ShelterA_2_374_90': 2324.0, 'newveh_ShelterA_2_393_95': 2330.0, 'newveh_ShelterA_2_395_97': 2337.0, 'newveh_ShelterA_2_376_91': 2345.0, 'newveh_ShelterA_2_394_96': 2350.0, 'newveh_ShelterA_2_396_98': 2358.0, 'newveh_ShelterA_2_399_101': 2363.0, 'newveh_ShelterA_2_398_100': 2367.0, 'newveh_ShelterA_2_397_99': 2375.0}
vehicle_abandant_time_by_pedestrianID_dict:{}
walking_distance_by_pedestrianID_dict:{}
route_change_time_by_vehID_dict:{'init_ShelterA_1_59': 460.0, 'init_ShelterA_2_80': 510.0, 'init_ShelterA_2_81': 510.0, 'init_ShelterA_2_86': 510.0, 'init_ShelterA_1_76': 520.0, 'init_ShelterA_1_77': 520.0, 'init_ShelterA_1_78': 520.0, 'init_ShelterA_1_79': 520.0, 'init_ShelterA_1_82': 520.0, 'init_ShelterA_1_83': 520.0, 'init_ShelterA_1_85': 520.0, 'init_ShelterA_1_87': 520.0, 'init_ShelterA_1_88': 520.0, 'init_ShelterA_1_89': 520.0, 'init_ShelterA_1_90': 520.0, 'init_ShelterA_1_84': 550.0, 'init_ShelterA_1_91': 580.0, 'init_ShelterA_1_92': 590.0, 'init_ShelterA_1_94': 590.0, 'init_ShelterA_1_95': 590.0, 'init_ShelterA_1_97': 590.0, 'init_ShelterA_1_98': 590.0, 'init_ShelterA_1_99': 590.0, 'init_ShelterA_2_96': 590.0, 'init_ShelterA_1_100': 600.0, 'init_ShelterA_1_101': 600.0, 'init_ShelterA_1_102': 600.0, 'init_ShelterA_1_104': 600.0, 'init_ShelterA_1_105': 600.0, 'init_ShelterA_1_106': 600.0, 'init_ShelterA_1_107': 600.0, 'init_ShelterA_2_103': 600.0, 'init_ShelterA_2_108': 610.0, 'init_ShelterA_1_152': 640.0, 'init_ShelterA_1_153': 640.0, 'init_ShelterA_1_154': 640.0, 'init_ShelterA_1_155': 640.0, 'init_ShelterA_1_157': 640.0, 'init_ShelterA_1_160': 640.0, 'init_ShelterA_2_161': 640.0, 'init_ShelterA_1_169': 680.0, 'init_ShelterA_2_111': 680.0, 'init_ShelterA_2_113': 680.0, 'init_ShelterA_1_117': 690.0, 'init_ShelterA_1_119': 690.0, 'init_ShelterA_1_120': 690.0, 'init_ShelterA_1_121': 690.0, 'init_ShelterA_1_124': 690.0, 'init_ShelterA_1_125': 690.0, 'init_ShelterA_1_126': 690.0, 'init_ShelterA_1_116': 700.0, 'init_ShelterA_1_118': 700.0, 'init_ShelterA_1_122': 700.0, 'init_ShelterA_1_123': 700.0, 'init_ShelterA_1_127': 700.0, 'init_ShelterA_1_114': 710.0, 'init_ShelterA_1_115': 710.0, 'init_ShelterA_2_172': 710.0, 'init_ShelterA_1_112': 720.0, 'init_ShelterA_1_173': 720.0, 'init_ShelterA_1_110': 730.0, 'init_ShelterA_2_185': 730.0, 'init_ShelterA_1_187': 740.0, 'init_ShelterA_1_129': 750.0, 'init_ShelterA_1_130': 750.0, 'init_ShelterA_1_131': 750.0, 'init_ShelterA_1_132': 760.0, 'init_ShelterA_1_133': 760.0, 'init_ShelterA_1_135': 760.0, 'init_ShelterA_1_137': 760.0, 'init_ShelterA_1_191': 760.0, 'init_ShelterA_2_134': 760.0, 'init_ShelterA_1_138': 770.0, 'init_ShelterA_1_139': 770.0, 'init_ShelterA_1_140': 770.0, 'init_ShelterA_1_141': 770.0, 'init_ShelterA_1_142': 770.0, 'init_ShelterA_1_190': 770.0, 'init_ShelterA_1_136': 780.0, 'init_ShelterA_1_143': 780.0, 'init_ShelterA_1_192': 780.0, 'init_ShelterA_1_193': 780.0, 'init_ShelterA_1_194': 780.0, 'init_ShelterA_1_146': 850.0, 'init_ShelterA_1_151': 850.0, 'init_ShelterA_1_156': 850.0, 'init_ShelterA_1_159': 850.0, 'init_ShelterA_1_145': 860.0, 'init_ShelterA_1_167': 860.0, 'init_ShelterA_1_214': 890.0, 'init_ShelterA_1_216': 890.0, 'init_ShelterA_2_215': 890.0, 'init_ShelterA_1_209': 900.0, 'init_ShelterA_1_211': 900.0, 'init_ShelterA_1_219': 900.0, 'init_ShelterA_1_147': 910.0, 'init_ShelterA_1_149': 910.0, 'init_ShelterA_1_158': 910.0, 'init_ShelterA_1_164': 910.0, 'init_ShelterA_1_144': 920.0, 'init_ShelterA_1_166': 920.0, 'init_ShelterA_1_168': 920.0, 'init_ShelterA_1_162': 930.0, 'init_ShelterA_1_163': 930.0, 'init_ShelterA_1_165': 930.0, 'init_ShelterA_1_176': 940.0, 'init_ShelterA_1_178': 940.0, 'init_ShelterA_1_179': 940.0, 'init_ShelterA_1_180': 940.0, 'init_ShelterA_1_175': 950.0, 'init_ShelterA_1_181': 950.0, 'init_ShelterA_1_183': 950.0, 'init_ShelterA_1_177': 960.0, 'init_ShelterA_1_171': 970.0, 'init_ShelterA_1_230': 970.0, 'init_ShelterA_1_231': 970.0, 'init_ShelterA_1_232': 970.0, 'init_ShelterA_1_233': 970.0, 'init_ShelterA_1_234': 970.0, 'init_ShelterA_1_236': 970.0, 'init_ShelterA_1_237': 970.0, 'init_ShelterA_1_170': 980.0, 'init_ShelterA_1_238': 980.0, 'init_ShelterA_1_239': 980.0, 'init_ShelterA_1_184': 990.0, 'init_ShelterA_1_186': 990.0, 'init_ShelterA_1_241': 990.0, 'init_ShelterA_1_242': 990.0, 'init_ShelterA_1_243': 990.0, 'init_ShelterA_2_198': 1030.0, 'init_ShelterA_2_200': 1030.0, 'init_ShelterA_1_195': 1040.0, 'init_ShelterA_1_196': 1040.0, 'init_ShelterA_1_197': 1040.0, 'init_ShelterA_1_199': 1040.0, 'init_ShelterA_1_201': 1040.0, 'init_ShelterA_1_189': 1050.0, 'init_ShelterA_2_259': 1050.0, 'init_ShelterA_1_257': 1060.0, 'init_ShelterA_1_203': 1070.0, 'init_ShelterA_1_254': 1070.0, 'init_ShelterA_1_255': 1070.0, 'init_ShelterA_1_256': 1070.0, 'init_ShelterA_1_258': 1070.0, 'init_ShelterA_1_260': 1070.0, 'init_ShelterA_1_261': 1070.0, 'init_ShelterA_1_262': 1070.0, 'init_ShelterA_1_263': 1070.0, 'init_ShelterA_1_264': 1070.0, 'init_ShelterA_1_205': 1080.0, 'init_ShelterA_2_266': 1090.0, 'init_ShelterA_1_223': 1100.0, 'init_ShelterA_1_221': 1130.0, 'init_ShelterA_1_222': 1130.0, 'init_ShelterA_1_218': 1140.0, 'init_ShelterA_1_220': 1140.0, 'init_ShelterA_1_212': 1150.0, 'init_ShelterA_1_225': 1160.0, 'init_ShelterA_1_226': 1160.0, 'init_ShelterA_1_282': 1160.0, 'init_ShelterA_2_279': 1160.0, 'init_ShelterA_1_217': 1170.0, 'init_ShelterA_1_228': 1170.0, 'init_ShelterA_1_235': 1170.0, 'init_ShelterA_1_240': 1170.0, 'init_ShelterA_1_213': 1180.0, 'init_ShelterA_1_229': 1180.0, 'init_ShelterA_1_289': 1220.0, 'init_ShelterA_1_290': 1220.0, 'init_ShelterA_1_291': 1220.0, 'init_ShelterA_1_292': 1220.0, 'init_ShelterA_1_293': 1220.0, 'init_ShelterA_1_294': 1220.0, 'init_ShelterA_1_249': 1300.0, 'init_ShelterA_1_251': 1300.0, 'init_ShelterA_1_252': 1300.0, 'init_ShelterA_2_303': 1310.0, 'init_ShelterA_2_312': 1310.0, 'init_ShelterA_1_315': 1320.0, 'init_ShelterA_1_310': 1330.0, 'init_ShelterA_1_317': 1330.0, 'init_ShelterA_1_318': 1330.0, 'init_ShelterA_1_319': 1330.0, 'init_ShelterA_1_320': 1330.0, 'init_ShelterA_1_268': 1350.0, 'init_ShelterA_1_270': 1350.0, 'init_ShelterA_1_272': 1350.0, 'init_ShelterA_1_273': 1360.0, 'init_ShelterA_1_276': 1360.0, 'init_ShelterA_1_277': 1360.0, 'init_ShelterA_1_278': 1360.0, 'init_ShelterA_1_281': 1360.0, 'init_ShelterA_1_280': 1370.0, 'init_ShelterA_1_284': 1380.0, 'init_ShelterA_1_275': 1390.0, 'init_ShelterA_2_329': 1390.0, 'init_ShelterA_1_271': 1400.0, 'init_ShelterA_1_283': 1400.0, 'init_ShelterA_1_328': 1400.0, 'init_ShelterA_2_330': 1400.0, 'init_ShelterA_2_339': 1400.0, 'init_ShelterA_2_341': 1400.0, 'init_ShelterA_1_327': 1410.0, 'init_ShelterA_1_331': 1410.0, 'init_ShelterA_1_332': 1410.0, 'init_ShelterA_1_336': 1410.0, 'init_ShelterA_1_337': 1410.0, 'init_ShelterA_1_338': 1410.0, 'init_ShelterA_1_340': 1410.0, 'init_ShelterA_1_285': 1420.0, 'init_ShelterA_1_286': 1420.0, 'init_ShelterA_2_288': 1430.0, 'init_ShelterA_2_359': 1470.0, 'init_ShelterA_1_351': 1480.0, 'init_ShelterA_1_360': 1480.0, 'init_ShelterA_1_362': 1480.0, 'init_ShelterA_1_363': 1480.0, 'init_ShelterA_2_356': 1480.0, 'init_ShelterA_2_361': 1480.0, 'init_ShelterA_1_352': 1490.0, 'init_ShelterA_1_354': 1490.0, 'init_ShelterA_1_366': 1490.0, 'init_ShelterA_1_367': 1490.0, 'init_ShelterA_2_365': 1490.0, 'init_ShelterA_1_298': 1520.0, 'init_ShelterA_1_301': 1530.0, 'init_ShelterA_1_316': 1530.0, 'init_ShelterA_1_287': 1540.0, 'init_ShelterA_1_309': 1540.0, 'init_ShelterA_1_311': 1540.0, 'init_ShelterA_1_313': 1540.0, 'init_ShelterA_1_307': 1550.0, 'init_ShelterA_1_306': 1560.0, 'init_ShelterA_1_374': 1560.0, 'init_ShelterA_1_376': 1560.0, 'init_ShelterA_2_375': 1560.0, 'init_ShelterA_1_299': 1570.0, 'init_ShelterA_1_302': 1570.0, 'init_ShelterA_1_305': 1570.0, 'init_ShelterA_1_308': 1570.0, 'init_ShelterA_1_314': 1570.0, 'init_ShelterA_1_342': 1570.0, 'init_ShelterA_1_343': 1570.0, 'init_ShelterA_1_295': 1580.0, 'init_ShelterA_1_296': 1580.0, 'init_ShelterA_1_300': 1580.0, 'init_ShelterA_1_323': 1590.0, 'init_ShelterA_1_324': 1590.0, 'init_ShelterA_1_333': 1600.0, 'init_ShelterA_1_334': 1610.0, 'init_ShelterA_1_335': 1620.0, 'init_ShelterA_1_345': 1640.0, 'init_ShelterA_1_370': 1650.0, 'init_ShelterA_1_393': 1650.0, 'init_ShelterA_1_394': 1650.0, 'init_ShelterA_1_395': 1660.0, 'init_ShelterA_1_396': 1660.0, 'init_ShelterA_1_397': 1660.0, 'init_ShelterA_1_398': 1660.0, 'init_ShelterA_1_399': 1660.0, 'init_ShelterA_1_344': 1680.0, 'init_ShelterA_1_350': 1690.0, 'init_ShelterA_1_346': 1700.0, 'init_ShelterA_1_347': 1700.0, 'init_ShelterA_1_348': 1700.0, 'init_ShelterA_1_349': 1700.0, 'init_ShelterA_1_353': 1700.0, 'init_ShelterA_1_355': 1700.0, 'init_ShelterA_1_357': 1700.0, 'init_ShelterA_1_358': 1700.0, 'init_ShelterA_1_364': 1700.0, 'init_ShelterA_1_368': 1710.0, 'init_ShelterA_1_369': 1710.0, 'init_ShelterA_1_373': 1740.0, 'init_ShelterA_1_381': 1740.0, 'init_ShelterA_1_382': 1740.0, 'init_ShelterA_1_383': 1740.0, 'init_ShelterA_1_371': 1760.0, 'init_ShelterA_1_377': 1780.0, 'init_ShelterA_1_379': 1780.0, 'init_ShelterA_1_380': 1780.0, 'init_ShelterA_1_372': 1790.0, 'init_ShelterA_1_378': 1790.0, 'init_ShelterA_1_385': 1790.0, 'init_ShelterA_1_388': 1850.0, 'init_ShelterA_1_391': 1850.0, 'init_ShelterA_2_387': 1850.0, 'init_ShelterA_1_386': 1860.0, 'init_ShelterA_1_392': 1870.0, 'init_ShelterA_1_389': 1880.0, 'init_ShelterA_1_390': 1880.0, 'init_ShelterA_1_384': 1910.0}
pedestrian_count:0
route_changed_vehicle_count:292
route_change_event_count:292
rate_vehicle_abandonment:0.00%
wrong_way_driving_count:0
vehicle_abandonment_count:0
normalcy_bias_route_change_count:143
majority_bias_route_change_count:149
lane_changed_vehicle_count:0
info_obtained_lanechange_count:0
elapsed_time_lanechange_count:0
majority_bias_lanechange_count:0

=== Job Result ===
end=2026-07-13T03:31:55+0900
elapsed_seconds=411
exit_code=0
status=SUCCESS
