=== Job Info ===
job_name=va_s12_e1.0_v1.0_r4
host=schubert
pid=135711
scenario=12
early_rate=1.0
v2v_rate=1.0
run_id=4
config=/home/katagi/vehicle-assistant-system/scenarios/JIP/configs/config_scenario_12.toml
output_dir=/home/katagi/vehicle-assistant-system/schubert_logs/va_s12_e1.0_v1.0_r4
start=2026-07-13T03:13:33+0900
python_version=Python 3.12.3
sumo_version=Eclipse SUMO sumo Version v1_23_1+0435-630512a

=== Command ===
cd /home/katagi/vehicle-assistant-system/schubert_logs/va_s12_e1.0_v1.0_r4
PYTHONPATH=/home/katagi/vehicle-assistant-system:/home/katagi/tmp/sumo/tools:/home/katagi/local/sumo/tools:/home/katagi/tmp/sumo/tools:/home/katagi/local/sumo/tools:/home/katagi/tmp/sumo/tools:/home/katagi/local/sumo/tools: python3 -W ignore::UserWarning -m scenarios.JIP.1-1-4.simulation.runner_simulator --nogui /home/katagi/vehicle-assistant-system/scenarios/JIP/configs/config_scenario_12.toml 1.0 1.0
simulation_pid=135731
Step #0.00 (0ms ?*RT. ?UPS, TraCI: 335ms, vehicles TOT 1 ACT 1 BUF 0)                     Step #100.00 (1ms ~= 1000.00*RT, ~26000.00UPS, TraCI: 17ms, vehicles TOT 26 ACT 26 BUF 0) Step #200.00 (0ms ?*RT. ?UPS, TraCI: 36ms, vehicles TOT 51 ACT 51 BUF 0)                  Step #300.00 (1ms ~= 1000.00*RT, ~77000.00UPS, TraCI: 63ms, vehicles TOT 77 ACT 77 BUF 0) Step #400.00 (1ms ~= 1000.00*RT, ~104000.00UPS, TraCI: 442ms, vehicles TOT 104 ACT 104 BUFStep #500.00 (0ms ?*RT. ?UPS, TraCI: 1324ms, vehicles TOT 132 ACT 131 BUF 0)              Step #600.00 (0ms ?*RT. ?UPS, TraCI: 606ms, vehicles TOT 159 ACT 158 BUF 0)               Step #700.00 (0ms ?*RT. ?UPS, TraCI: 1151ms, vehicles TOT 190 ACT 176 BUF 10)             Step #800.00 (0ms ?*RT. ?UPS, TraCI: 1009ms, vehicles TOT 219 ACT 190 BUF 25)             Step #900.00 (0ms ?*RT. ?UPS, TraCI: 1414ms, vehicles TOT 244 ACT 215 BUF 29)             Step #1000.00 (1ms ~= 1000.00*RT, ~236000.00UPS, TraCI: 1214ms, vehicles TOT 279 ACT 236 BStep #1100.00 (0ms ?*RT. ?UPS, TraCI: 1503ms, vehicles TOT 311 ACT 256 BUF 48)            Step #1200.00 (1ms ~= 1000.00*RT, ~285000.00UPS, TraCI: 1961ms, vehicles TOT 348 ACT 285 BStep #1300.00 (0ms ?*RT. ?UPS, TraCI: 1808ms, vehicles TOT 369 ACT 297 BUF 71)            Step #1400.00 (1ms ~= 1000.00*RT, ~315000.00UPS, TraCI: 1588ms, vehicles TOT 398 ACT 315 BStep #1500.00 (1ms ~= 1000.00*RT, ~330000.00UPS, TraCI: 1463ms, vehicles TOT 416 ACT 330 BStep #1600.00 (1ms ~= 1000.00*RT, ~359000.00UPS, TraCI: 1705ms, vehicles TOT 452 ACT 359 BStep #1700.00 (1ms ~= 1000.00*RT, ~381000.00UPS, TraCI: 1120ms, vehicles TOT 496 ACT 381 BStep #1800.00 (1ms ~= 1000.00*RT, ~400000.00UPS, TraCI: 1702ms, vehicles TOT 519 ACT 400 BStep #1900.00 (0ms ?*RT. ?UPS, TraCI: 695ms, vehicles TOT 520 ACT 400 BUF 0)              Step #2000.00 (1ms ~= 1000.00*RT, ~400000.00UPS, TraCI: 336ms, vehicles TOT 520 ACT 400 BUStep #2100.00 (1ms ~= 1000.00*RT, ~400000.00UPS, TraCI: 241ms, vehicles TOT 520 ACT 400 BUStep #2200.00 (1ms ~= 1000.00*RT, ~400000.00UPS, TraCI: 102ms, vehicles TOT 520 ACT 400 BUStep #2300.00 (0ms ?*RT. ?UPS, TraCI: 95ms, vehicles TOT 520 ACT 400 BUF 0)               Step #2400.00 (0ms ?*RT. ?UPS, TraCI: 83ms, vehicles TOT 520 ACT 400 BUF 0)               Step #2500.00 (0ms ?*RT. ?UPS, TraCI: 81ms, vehicles TOT 520 ACT 400 BUF 0)               Step #2600.00 (1ms ~= 1000.00*RT, ~400000.00UPS, TraCI: 79ms, vehicles TOT 520 ACT 400 BUFStep #2700.00 (0ms ?*RT. ?UPS, TraCI: 79ms, vehicles TOT 520 ACT 400 BUF 0)               Step #2800.00 (0ms ?*RT. ?UPS, TraCI: 79ms, vehicles TOT 520 ACT 400 BUF 0)               Step #2900.00 (0ms ?*RT. ?UPS, TraCI: 78ms, vehicles TOT 520 ACT 400 BUF 0)               Step #3000.00 (0ms ?*RT. ?UPS, TraCI: 79ms, vehicles TOT 520 ACT 400 BUF 0)               
 Retrying in 1 seconds
出現数: {'A1': 363, 'A2': 37}
割合:
  Total: 400
  A1: 363 (90.75%)
  A2: 37 (9.25%)
  B1: 0 (0.00%)
  B2: 0 (0.00%)
mean elapsed_time: 531.905
OK all vehs arrived 
平均渋滞継続時間: 470.39秒
OK all vehicle abandonment were detected
261
139
===== Simlation Result Summary =====
avg_congestion_duration: 470.39 
arrival_time_by_vehID_dict:{'init_ShelterA_1_0': 209.0, 'init_ShelterA_1_1': 214.0, 'init_ShelterA_1_2': 219.0, 'init_ShelterA_1_3': 228.0, 'init_ShelterA_1_4': 234.0, 'init_ShelterA_1_5': 241.0, 'init_ShelterA_1_6': 246.0, 'init_ShelterA_1_7': 250.0, 'init_ShelterA_1_8': 285.0, 'init_ShelterA_1_10': 293.0, 'init_ShelterA_1_11': 298.0, 'init_ShelterA_1_12': 304.0, 'init_ShelterA_1_13': 309.0, 'init_ShelterA_1_14': 315.0, 'init_ShelterA_1_15': 322.0, 'init_ShelterA_1_16': 329.0, 'init_ShelterA_1_17': 336.0, 'init_ShelterA_1_18': 344.0, 'init_ShelterA_1_19': 350.0, 'init_ShelterA_1_20': 355.0, 'init_ShelterA_1_21': 359.0, 'init_ShelterA_1_23': 383.0, 'init_ShelterA_1_25': 389.0, 'init_ShelterA_1_26': 395.0, 'init_ShelterA_2_9': 397.0, 'init_ShelterA_1_27': 400.0, 'init_ShelterA_1_28': 406.0, 'init_ShelterA_1_29': 412.0, 'init_ShelterA_1_30': 419.0, 'init_ShelterA_1_31': 426.0, 'init_ShelterA_1_32': 434.0, 'init_ShelterA_1_33': 443.0, 'init_ShelterA_1_34': 452.0, 'init_ShelterA_1_35': 461.0, 'init_ShelterA_2_22': 466.0, 'init_ShelterA_1_36': 470.0, 'init_ShelterA_2_24': 474.0, 'init_ShelterA_1_37': 478.0, 'init_ShelterA_1_38': 487.0, 'init_ShelterA_1_39': 496.0, 'init_ShelterA_1_41': 505.0, 'init_ShelterA_1_42': 514.0, 'init_ShelterA_1_43': 524.0, 'init_ShelterA_1_44': 534.0, 'init_ShelterA_1_46': 543.0, 'init_ShelterA_1_47': 553.0, 'init_ShelterA_1_48': 563.0, 'init_ShelterA_1_49': 572.0, 'init_ShelterA_1_50': 582.0, 'init_ShelterA_2_45': 590.0, 'init_ShelterA_1_51': 592.0, 'init_ShelterA_1_52': 601.0, 'init_ShelterA_1_53': 611.0, 'init_ShelterA_1_54': 619.0, 'init_ShelterA_1_55': 624.0, 'newveh_ShelterA_1_40_0': 629.0, 'init_ShelterA_1_56': 633.0, 'init_ShelterA_1_57': 641.0, 'init_ShelterA_1_58': 644.0, 'init_ShelterA_2_75': 647.0, 'init_ShelterA_1_59': 660.0, 'init_ShelterA_1_60': 662.0, 'init_ShelterA_1_76': 663.0, 'init_ShelterA_1_61': 665.0, 'init_ShelterA_2_78': 666.0, 'init_ShelterA_1_62': 668.0, 'init_ShelterA_2_83': 668.0, 'init_ShelterA_1_63': 671.0, 'init_ShelterA_2_86': 671.0, 'init_ShelterA_1_64': 674.0, 'init_ShelterA_2_88': 674.0, 'init_ShelterA_2_89': 677.0, 'init_ShelterA_1_65': 680.0, 'init_ShelterA_1_66': 682.0, 'init_ShelterA_1_67': 685.0, 'init_ShelterA_1_68': 688.0, 'init_ShelterA_1_69': 691.0, 'init_ShelterA_1_70': 694.0, 'init_ShelterA_1_71': 697.0, 'init_ShelterA_1_72': 700.0, 'init_ShelterA_1_73': 716.0, 'init_ShelterA_2_91': 720.0, 'init_ShelterA_1_74': 731.0, 'init_ShelterA_1_96': 747.0, 'init_ShelterA_2_98': 750.0, 'init_ShelterA_2_104': 757.0, 'init_ShelterA_1_77': 759.0, 'init_ShelterA_1_79': 761.0, 'init_ShelterA_1_80': 764.0, 'init_ShelterA_1_81': 766.0, 'init_ShelterA_1_82': 784.0, 'init_ShelterA_1_84': 786.0, 'init_ShelterA_1_85': 788.0, 'init_ShelterA_1_87': 791.0, 'init_ShelterA_1_90': 823.0, 'init_ShelterA_1_92': 826.0, 'init_ShelterA_1_93': 828.0, 'init_ShelterA_1_94': 830.0, 'init_ShelterA_1_95': 837.0, 'init_ShelterA_1_97': 848.0, 'init_ShelterA_1_99': 862.0, 'init_ShelterA_1_120': 863.0, 'init_ShelterA_1_100': 864.0, 'init_ShelterA_1_101': 875.0, 'init_ShelterA_1_102': 877.0, 'init_ShelterA_1_103': 879.0, 'init_ShelterA_1_105': 881.0, 'init_ShelterA_2_125': 902.0, 'init_ShelterA_2_131': 911.0, 'init_ShelterA_1_106': 912.0, 'init_ShelterA_1_107': 914.0, 'init_ShelterA_1_108': 916.0, 'init_ShelterA_1_109': 920.0, 'init_ShelterA_2_132': 920.0, 'init_ShelterA_1_110': 922.0, 'init_ShelterA_2_134': 923.0, 'init_ShelterA_1_111': 931.0, 'init_ShelterA_1_112': 933.0, 'init_ShelterA_1_113': 935.0, 'init_ShelterA_1_114': 938.0, 'init_ShelterA_1_115': 941.0, 'init_ShelterA_1_136': 943.0, 'init_ShelterA_1_116': 950.0, 'init_ShelterA_1_117': 952.0, 'init_ShelterA_1_118': 954.0, 'init_ShelterA_1_119': 959.0, 'init_ShelterA_1_121': 962.0, 'init_ShelterA_1_122': 978.0, 'init_ShelterA_2_142': 987.0, 'init_ShelterA_1_123': 1001.0, 'init_ShelterA_1_124': 1003.0, 'init_ShelterA_1_126': 1005.0, 'init_ShelterA_1_127': 1008.0, 'init_ShelterA_1_128': 1011.0, 'init_ShelterA_1_129': 1018.0, 'init_ShelterA_1_130': 1020.0, 'init_ShelterA_1_133': 1022.0, 'init_ShelterA_1_161': 1025.0, 'init_ShelterA_1_135': 1027.0, 'init_ShelterA_1_165': 1031.0, 'init_ShelterA_1_166': 1040.0, 'init_ShelterA_1_137': 1045.0, 'init_ShelterA_1_167': 1046.0, 'init_ShelterA_1_138': 1047.0, 'init_ShelterA_1_139': 1049.0, 'init_ShelterA_1_168': 1050.0, 'init_ShelterA_1_140': 1052.0, 'init_ShelterA_1_141': 1092.0, 'init_ShelterA_1_143': 1103.0, 'init_ShelterA_1_144': 1104.0, 'init_ShelterA_1_145': 1106.0, 'init_ShelterA_1_146': 1109.0, 'init_ShelterA_1_147': 1111.0, 'init_ShelterA_1_148': 1114.0, 'init_ShelterA_1_160': 1123.0, 'init_ShelterA_1_163': 1125.0, 'init_ShelterA_1_186': 1125.0, 'init_ShelterA_1_164': 1137.0, 'newveh_ShelterA_2_149_1': 1156.0, 'newveh_ShelterA_2_162_12': 1187.0, 'newveh_ShelterA_2_159_11': 1200.0, 'newveh_ShelterA_2_158_10': 1206.0, 'init_ShelterA_1_191': 1207.0, 'newveh_ShelterA_2_157_9': 1211.0, 'newveh_ShelterA_2_156_8': 1218.0, 'newveh_ShelterA_2_155_7': 1223.0, 'newveh_ShelterA_2_154_6': 1229.0, 'newveh_ShelterA_2_153_5': 1236.0, 'newveh_ShelterA_2_152_4': 1242.0, 'newveh_ShelterA_2_151_3': 1251.0, 'init_ShelterA_2_196': 1266.0, 'init_ShelterA_2_197': 1268.0, 'newveh_ShelterA_2_150_2': 1272.0, 'init_ShelterA_1_173': 1274.0, 'init_ShelterA_1_174': 1276.0, 'init_ShelterA_1_175': 1278.0, 'init_ShelterA_1_176': 1281.0, 'init_ShelterA_1_201': 1288.0, 'init_ShelterA_1_202': 1297.0, 'newveh_ShelterA_2_171_13': 1298.0, 'init_ShelterA_1_187': 1300.0, 'init_ShelterA_1_188': 1302.0, 'init_ShelterA_1_189': 1304.0, 'init_ShelterA_1_190': 1307.0, 'newveh_ShelterA_2_182_19': 1314.0, 'newveh_ShelterA_2_181_18': 1318.0, 'newveh_ShelterA_2_180_17': 1323.0, 'newveh_ShelterA_2_177_16': 1329.0, 'newveh_ShelterA_2_169_14': 1337.0, 'newveh_ShelterA_2_170_15': 1346.0, 'newveh_ShelterA_2_184_23': 1356.0, 'newveh_ShelterA_2_183_22': 1365.0, 'newveh_ShelterA_2_179_21': 1374.0, 'newveh_ShelterA_2_172_20': 1382.0, 'newveh_ShelterA_2_185_24': 1386.0, 'init_ShelterA_1_195': 1388.0, 'init_ShelterA_1_217': 1396.0, 'init_ShelterA_1_226': 1400.0, 'newveh_ShelterA_2_178_25': 1401.0, 'init_ShelterA_1_198': 1403.0, 'init_ShelterA_1_199': 1405.0, 'init_ShelterA_1_200': 1407.0, 'init_ShelterA_1_203': 1409.0, 'init_ShelterA_1_204': 1412.0, 'init_ShelterA_1_205': 1415.0, 'init_ShelterA_1_206': 1418.0, 'init_ShelterA_1_207': 1421.0, 'newveh_ShelterA_2_194_26': 1430.0, 'init_ShelterA_1_208': 1432.0, 'init_ShelterA_1_209': 1434.0, 'init_ShelterA_1_210': 1440.0, 'init_ShelterA_1_211': 1451.0, 'init_ShelterA_1_235': 1455.0, 'init_ShelterA_1_236': 1470.0, 'newveh_ShelterA_2_193_27': 1471.0, 'init_ShelterA_1_212': 1473.0, 'init_ShelterA_1_237': 1476.0, 'init_ShelterA_1_213': 1479.0, 'init_ShelterA_1_214': 1481.0, 'init_ShelterA_1_239': 1482.0, 'init_ShelterA_1_243': 1488.0, 'init_ShelterA_1_246': 1494.0, 'init_ShelterA_1_247': 1500.0, 'newveh_ShelterA_2_192_28': 1507.0, 'init_ShelterA_1_248': 1508.0, 'init_ShelterA_1_215': 1510.0, 'init_ShelterA_1_216': 1512.0, 'init_ShelterA_1_218': 1513.0, 'init_ShelterA_1_249': 1514.0, 'init_ShelterA_1_219': 1516.0, 'init_ShelterA_1_220': 1518.0, 'init_ShelterA_1_252': 1519.0, 'init_ShelterA_1_221': 1520.0, 'init_ShelterA_1_222': 1523.0, 'newveh_ShelterA_1_223_32': 1523.0, 'init_ShelterA_1_229': 1526.0, 'newveh_ShelterA_1_225_35': 1549.0, 'newveh_ShelterA_2_266_71': 1550.0, 'newveh_ShelterA_2_251_69': 1555.0, 'init_ShelterA_1_233': 1566.0, 'init_ShelterA_1_244': 1568.0, 'init_ShelterA_1_278': 1583.0, 'newveh_ShelterA_2_234_31': 1586.0, 'newveh_ShelterA_2_227_29': 1593.0, 'newveh_ShelterA_2_228_30': 1598.0, 'newveh_ShelterA_2_238_34': 1603.0, 'newveh_ShelterA_2_250_68': 1611.0, 'newveh_ShelterA_2_265_70': 1617.0, 'init_ShelterA_1_281': 1636.0, 'init_ShelterA_1_282': 1641.0, 'newveh_ShelterA_2_231_33': 1641.0, 'init_ShelterA_1_288': 1647.0, 'newveh_ShelterA_2_242_38': 1649.0, 'newveh_ShelterA_2_241_37': 1653.0, 'init_ShelterA_1_267': 1655.0, 'newveh_ShelterA_2_224_36': 1667.0, 'init_ShelterA_1_268': 1669.0, 'newveh_ShelterA_2_245_42': 1674.0, 'newveh_ShelterA_2_240_41': 1688.0, 'newveh_ShelterA_2_230_39': 1696.0, 'init_ShelterA_2_295': 1708.0, 'init_ShelterA_2_296': 1716.0, 'newveh_ShelterA_2_232_40': 1717.0, 'init_ShelterA_1_271': 1719.0, 'init_ShelterA_1_273': 1722.0, 'init_ShelterA_2_300': 1722.0, 'init_ShelterA_1_274': 1724.0, 'init_ShelterA_1_276': 1726.0, 'init_ShelterA_2_301': 1726.0, 'init_ShelterA_1_279': 1728.0, 'init_ShelterA_2_303': 1735.0, 'newveh_ShelterA_2_270_81': 1737.0, 'newveh_ShelterA_2_269_80': 1742.0, 'init_ShelterA_1_280': 1744.0, 'newveh_ShelterA_2_253_46': 1750.0, 'init_ShelterA_1_304': 1751.0, 'newveh_ShelterA_2_255_43': 1754.0, 'newveh_ShelterA_1_277_55': 1756.0, 'init_ShelterA_2_315': 1759.0, 'init_ShelterA_1_317': 1765.0, 'newveh_ShelterA_2_259_45': 1765.0, 'newveh_ShelterA_2_257_44': 1774.0, 'init_ShelterA_1_289': 1776.0, 'newveh_ShelterA_2_256_48': 1784.0, 'newveh_ShelterA_2_254_47': 1789.0, 'newveh_ShelterA_2_262_52': 1796.0, 'newveh_ShelterA_2_258_49': 1803.0, 'newveh_ShelterA_2_260_50': 1812.0, 'init_ShelterA_2_321': 1816.0, 'newveh_ShelterA_2_261_51': 1820.0, 'init_ShelterA_2_333': 1822.0, 'newveh_ShelterA_2_263_53': 1829.0, 'newveh_ShelterA_2_305_86': 1838.0, 'newveh_ShelterA_2_318_87': 1847.0, 'newveh_ShelterA_2_264_54': 1868.0, 'init_ShelterA_1_297': 1871.0, 'init_ShelterA_1_298': 1873.0, 'init_ShelterA_1_299': 1875.0, 'init_ShelterA_1_302': 1877.0, 'init_ShelterA_1_314': 1879.0, 'init_ShelterA_1_316': 1881.0, 'newveh_ShelterA_2_275_57': 1890.0, 'newveh_ShelterA_2_272_56': 1895.0, 'newveh_ShelterA_2_332_99': 1899.0, 'newveh_ShelterA_2_331_98': 1909.0, 'init_ShelterA_1_342': 1913.0, 'newveh_ShelterA_2_329_97': 1919.0, 'newveh_ShelterA_2_328_96': 1923.0, 'init_ShelterA_1_319': 1925.0, 'newveh_ShelterA_2_286_61': 1934.0, 'init_ShelterA_1_351': 1936.0, 'newveh_ShelterA_2_285_60': 1939.0, 'newveh_ShelterA_2_284_59': 1944.0, 'newveh_ShelterA_2_283_58': 1954.0, 'init_ShelterA_1_320': 1956.0, 'init_ShelterA_1_322': 1958.0, 'newveh_ShelterA_2_287_62': 1981.0, 'init_ShelterA_1_323': 1984.0, 'init_ShelterA_1_334': 1986.0, 'init_ShelterA_1_335': 1988.0, 'init_ShelterA_1_336': 1990.0, 'init_ShelterA_1_337': 1992.0, 'init_ShelterA_1_338': 1994.0, 'newveh_ShelterA_2_294_65': 2002.0, 'newveh_ShelterA_2_327_95': 2006.0, 'init_ShelterA_1_365': 2008.0, 'newveh_ShelterA_2_326_94': 2014.0, 'newveh_ShelterA_2_325_93': 2019.0, 'newveh_ShelterA_2_330_100': 2026.0, 'newveh_ShelterA_2_293_64': 2031.0, 'newveh_ShelterA_2_292_63': 2036.0, 'newveh_ShelterA_2_290_66': 2042.0, 'newveh_ShelterA_2_291_67': 2062.0, 'init_ShelterA_1_343': 2064.0, 'init_ShelterA_1_344': 2067.0, 'init_ShelterA_1_345': 2069.0, 'init_ShelterA_1_346': 2071.0, 'init_ShelterA_1_347': 2073.0, 'init_ShelterA_1_348': 2075.0, 'init_ShelterA_1_349': 2077.0, 'init_ShelterA_1_350': 2079.0, 'init_ShelterA_1_352': 2081.0, 'init_ShelterA_1_353': 2084.0, 'init_ShelterA_1_354': 2087.0, 'newveh_ShelterA_1_324_82': 2094.0, 'init_ShelterA_1_355': 2099.0, 'init_ShelterA_1_356': 2100.0, 'init_ShelterA_1_357': 2102.0, 'init_ShelterA_1_358': 2104.0, 'init_ShelterA_1_392': 2105.0, 'init_ShelterA_1_359': 2106.0, 'init_ShelterA_1_362': 2108.0, 'init_ShelterA_1_363': 2111.0, 'init_ShelterA_1_399': 2111.0, 'init_ShelterA_1_364': 2112.0, 'newveh_ShelterA_1_374_92': 2115.0, 'newveh_ShelterA_1_361_89': 2120.0, 'newveh_ShelterA_2_306_72': 2137.0, 'init_ShelterA_1_372': 2139.0, 'init_ShelterA_1_373': 2141.0, 'init_ShelterA_1_375': 2143.0, 'init_ShelterA_1_376': 2145.0, 'newveh_ShelterA_2_308_74': 2155.0, 'newveh_ShelterA_2_307_73': 2159.0, 'newveh_ShelterA_2_309_75': 2164.0, 'newveh_ShelterA_1_360_88': 2172.0, 'newveh_ShelterA_2_371_116': 2182.0, 'newveh_ShelterA_2_366_115': 2189.0, 'newveh_ShelterA_2_370_118': 2198.0, 'newveh_ShelterA_2_367_117': 2202.0, 'newveh_ShelterA_2_394_119': 2207.0, 'newveh_ShelterA_2_310_76': 2215.0, 'newveh_ShelterA_2_311_77': 2220.0, 'newveh_ShelterA_2_312_78': 2226.0, 'newveh_ShelterA_2_313_79': 2247.0, 'init_ShelterA_1_381': 2249.0, 'init_ShelterA_1_382': 2252.0, 'init_ShelterA_1_393': 2254.0, 'init_ShelterA_1_395': 2255.0, 'init_ShelterA_1_396': 2258.0, 'init_ShelterA_1_398': 2260.0, 'newveh_ShelterA_2_369_91': 2267.0, 'newveh_ShelterA_1_397_114': 2268.0, 'newveh_ShelterA_2_368_90': 2271.0, 'newveh_ShelterA_2_339_83': 2294.0, 'newveh_ShelterA_2_340_84': 2301.0, 'newveh_ShelterA_2_341_85': 2308.0, 'newveh_ShelterA_2_377_101': 2314.0, 'newveh_ShelterA_2_383_102': 2320.0, 'newveh_ShelterA_2_386_107': 2327.0, 'newveh_ShelterA_2_385_106': 2335.0, 'newveh_ShelterA_2_387_108': 2344.0, 'newveh_ShelterA_2_390_112': 2352.0, 'newveh_ShelterA_2_389_111': 2361.0, 'newveh_ShelterA_2_388_110': 2370.0, 'newveh_ShelterA_2_380_105': 2380.0, 'newveh_ShelterA_2_379_104': 2389.0, 'newveh_ShelterA_2_378_103': 2396.0, 'newveh_ShelterA_2_384_109': 2400.0, 'newveh_ShelterA_2_391_113': 2405.0}
vehicle_abandant_time_by_pedestrianID_dict:{}
walking_distance_by_pedestrianID_dict:{}
route_change_time_by_vehID_dict:{'init_ShelterA_1_60': 430.0, 'init_ShelterA_1_61': 430.0, 'init_ShelterA_1_63': 430.0, 'init_ShelterA_1_67': 430.0, 'init_ShelterA_1_58': 440.0, 'init_ShelterA_1_59': 440.0, 'init_ShelterA_1_66': 440.0, 'init_ShelterA_1_71': 440.0, 'init_ShelterA_2_40': 440.0, 'init_ShelterA_1_57': 450.0, 'init_ShelterA_1_70': 450.0, 'init_ShelterA_1_62': 460.0, 'init_ShelterA_1_64': 460.0, 'init_ShelterA_1_65': 460.0, 'init_ShelterA_1_68': 460.0, 'init_ShelterA_1_69': 460.0, 'init_ShelterA_2_86': 480.0, 'init_ShelterA_1_74': 490.0, 'init_ShelterA_1_84': 490.0, 'init_ShelterA_1_85': 490.0, 'init_ShelterA_1_72': 500.0, 'init_ShelterA_1_73': 500.0, 'init_ShelterA_2_75': 510.0, 'init_ShelterA_2_78': 510.0, 'init_ShelterA_1_79': 520.0, 'init_ShelterA_1_80': 520.0, 'init_ShelterA_1_81': 520.0, 'init_ShelterA_1_82': 520.0, 'init_ShelterA_2_83': 520.0, 'init_ShelterA_1_77': 530.0, 'init_ShelterA_2_88': 530.0, 'init_ShelterA_2_89': 530.0, 'init_ShelterA_1_87': 540.0, 'init_ShelterA_2_104': 570.0, 'init_ShelterA_2_98': 570.0, 'init_ShelterA_1_102': 580.0, 'init_ShelterA_1_103': 580.0, 'init_ShelterA_1_105': 580.0, 'init_ShelterA_1_90': 580.0, 'init_ShelterA_1_92': 580.0, 'init_ShelterA_1_93': 580.0, 'init_ShelterA_1_94': 580.0, 'init_ShelterA_1_97': 580.0, 'init_ShelterA_2_91': 580.0, 'init_ShelterA_1_95': 590.0, 'init_ShelterA_1_100': 600.0, 'init_ShelterA_1_101': 600.0, 'init_ShelterA_1_99': 610.0, 'init_ShelterA_1_149': 640.0, 'init_ShelterA_1_150': 640.0, 'init_ShelterA_1_151': 640.0, 'init_ShelterA_1_152': 640.0, 'init_ShelterA_1_153': 640.0, 'init_ShelterA_1_154': 640.0, 'init_ShelterA_1_155': 640.0, 'init_ShelterA_1_156': 640.0, 'init_ShelterA_1_157': 640.0, 'init_ShelterA_1_158': 640.0, 'init_ShelterA_1_159': 640.0, 'init_ShelterA_1_162': 640.0, 'init_ShelterA_2_142': 640.0, 'init_ShelterA_1_107': 660.0, 'init_ShelterA_1_106': 670.0, 'init_ShelterA_1_109': 680.0, 'init_ShelterA_1_112': 680.0, 'init_ShelterA_1_113': 680.0, 'init_ShelterA_1_114': 680.0, 'init_ShelterA_1_115': 680.0, 'init_ShelterA_1_116': 680.0, 'init_ShelterA_1_117': 680.0, 'init_ShelterA_1_118': 680.0, 'init_ShelterA_1_119': 680.0, 'init_ShelterA_1_108': 690.0, 'init_ShelterA_1_110': 690.0, 'init_ShelterA_1_111': 690.0, 'init_ShelterA_1_122': 690.0, 'init_ShelterA_1_123': 690.0, 'init_ShelterA_1_171': 700.0, 'init_ShelterA_1_169': 720.0, 'init_ShelterA_1_170': 720.0, 'init_ShelterA_1_177': 720.0, 'init_ShelterA_1_180': 720.0, 'init_ShelterA_1_181': 720.0, 'init_ShelterA_1_182': 720.0, 'init_ShelterA_1_172': 730.0, 'init_ShelterA_1_179': 730.0, 'init_ShelterA_1_183': 730.0, 'init_ShelterA_1_184': 730.0, 'init_ShelterA_1_185': 730.0, 'init_ShelterA_1_124': 740.0, 'init_ShelterA_1_178': 740.0, 'init_ShelterA_2_125': 740.0, 'init_ShelterA_1_127': 750.0, 'init_ShelterA_1_128': 750.0, 'init_ShelterA_1_129': 750.0, 'init_ShelterA_2_131': 750.0, 'init_ShelterA_2_132': 750.0, 'init_ShelterA_2_134': 750.0, 'init_ShelterA_1_121': 760.0, 'init_ShelterA_1_126': 760.0, 'init_ShelterA_1_135': 760.0, 'init_ShelterA_1_130': 770.0, 'init_ShelterA_1_133': 770.0, 'init_ShelterA_1_137': 770.0, 'init_ShelterA_1_138': 770.0, 'init_ShelterA_1_139': 770.0, 'init_ShelterA_1_140': 780.0, 'init_ShelterA_1_194': 780.0, 'init_ShelterA_1_193': 790.0, 'init_ShelterA_1_192': 800.0, 'init_ShelterA_1_148': 850.0, 'init_ShelterA_1_163': 850.0, 'init_ShelterA_1_164': 850.0, 'init_ShelterA_1_143': 860.0, 'init_ShelterA_1_147': 860.0, 'init_ShelterA_1_160': 860.0, 'init_ShelterA_1_141': 870.0, 'init_ShelterA_1_144': 870.0, 'init_ShelterA_1_145': 870.0, 'init_ShelterA_1_146': 870.0, 'init_ShelterA_1_188': 950.0, 'init_ShelterA_1_189': 950.0, 'init_ShelterA_1_190': 950.0, 'init_ShelterA_1_175': 960.0, 'init_ShelterA_1_176': 960.0, 'init_ShelterA_1_187': 960.0, 'init_ShelterA_1_227': 960.0, 'init_ShelterA_1_228': 960.0, 'init_ShelterA_1_234': 960.0, 'init_ShelterA_2_223': 960.0, 'init_ShelterA_1_173': 970.0, 'init_ShelterA_1_174': 970.0, 'init_ShelterA_1_231': 970.0, 'init_ShelterA_1_238': 970.0, 'init_ShelterA_2_225': 970.0, 'init_ShelterA_1_224': 980.0, 'init_ShelterA_1_241': 980.0, 'init_ShelterA_1_242': 980.0, 'init_ShelterA_1_230': 990.0, 'init_ShelterA_1_232': 990.0, 'init_ShelterA_1_240': 990.0, 'init_ShelterA_1_245': 990.0, 'init_ShelterA_2_196': 1030.0, 'init_ShelterA_2_197': 1030.0, 'init_ShelterA_1_195': 1040.0, 'init_ShelterA_1_199': 1040.0, 'init_ShelterA_1_255': 1050.0, 'init_ShelterA_1_257': 1050.0, 'init_ShelterA_1_259': 1050.0, 'init_ShelterA_1_253': 1060.0, 'init_ShelterA_1_254': 1060.0, 'init_ShelterA_1_256': 1060.0, 'init_ShelterA_1_258': 1060.0, 'init_ShelterA_1_260': 1060.0, 'init_ShelterA_1_261': 1060.0, 'init_ShelterA_1_262': 1070.0, 'init_ShelterA_1_263': 1070.0, 'init_ShelterA_1_264': 1070.0, 'init_ShelterA_1_200': 1110.0, 'init_ShelterA_1_203': 1110.0, 'init_ShelterA_1_205': 1110.0, 'init_ShelterA_1_208': 1120.0, 'init_ShelterA_1_209': 1120.0, 'init_ShelterA_1_211': 1120.0, 'init_ShelterA_1_213': 1120.0, 'init_ShelterA_1_204': 1130.0, 'init_ShelterA_1_206': 1130.0, 'init_ShelterA_1_210': 1130.0, 'init_ShelterA_2_277': 1130.0, 'init_ShelterA_1_272': 1140.0, 'init_ShelterA_1_275': 1140.0, 'init_ShelterA_1_283': 1160.0, 'init_ShelterA_1_284': 1160.0, 'init_ShelterA_1_285': 1160.0, 'init_ShelterA_1_286': 1160.0, 'init_ShelterA_1_287': 1160.0, 'init_ShelterA_1_198': 1180.0, 'init_ShelterA_1_207': 1180.0, 'init_ShelterA_1_221': 1200.0, 'init_ShelterA_1_233': 1210.0, 'init_ShelterA_1_292': 1210.0, 'init_ShelterA_1_293': 1210.0, 'init_ShelterA_1_294': 1210.0, 'init_ShelterA_1_220': 1220.0, 'init_ShelterA_1_229': 1220.0, 'init_ShelterA_1_244': 1220.0, 'init_ShelterA_1_290': 1220.0, 'init_ShelterA_1_291': 1220.0, 'init_ShelterA_1_215': 1230.0, 'init_ShelterA_1_219': 1230.0, 'init_ShelterA_1_216': 1240.0, 'init_ShelterA_1_250': 1260.0, 'init_ShelterA_1_251': 1260.0, 'init_ShelterA_1_212': 1270.0, 'init_ShelterA_1_214': 1270.0, 'init_ShelterA_1_218': 1270.0, 'init_ShelterA_1_222': 1270.0, 'init_ShelterA_1_265': 1270.0, 'init_ShelterA_1_266': 1270.0, 'init_ShelterA_1_273': 1300.0, 'init_ShelterA_1_306': 1330.0, 'init_ShelterA_1_307': 1330.0, 'init_ShelterA_1_308': 1330.0, 'init_ShelterA_1_309': 1330.0, 'init_ShelterA_1_310': 1330.0, 'init_ShelterA_1_311': 1330.0, 'init_ShelterA_1_312': 1330.0, 'init_ShelterA_1_313': 1330.0, 'init_ShelterA_1_267': 1350.0, 'init_ShelterA_1_268': 1350.0, 'init_ShelterA_1_269': 1350.0, 'init_ShelterA_1_270': 1350.0, 'init_ShelterA_1_276': 1360.0, 'init_ShelterA_1_279': 1360.0, 'init_ShelterA_1_280': 1360.0, 'init_ShelterA_1_274': 1370.0, 'init_ShelterA_1_271': 1390.0, 'init_ShelterA_1_289': 1390.0, 'init_ShelterA_2_324': 1390.0, 'init_ShelterA_1_297': 1400.0, 'init_ShelterA_2_296': 1400.0, 'init_ShelterA_2_295': 1440.0, 'init_ShelterA_1_339': 1470.0, 'init_ShelterA_1_340': 1480.0, 'init_ShelterA_1_341': 1480.0, 'init_ShelterA_1_299': 1500.0, 'init_ShelterA_2_303': 1500.0, 'init_ShelterA_1_298': 1510.0, 'init_ShelterA_1_302': 1510.0, 'init_ShelterA_2_300': 1510.0, 'init_ShelterA_2_301': 1510.0, 'init_ShelterA_2_315': 1510.0, 'init_ShelterA_1_305': 1520.0, 'init_ShelterA_1_318': 1530.0, 'init_ShelterA_1_322': 1560.0, 'init_ShelterA_1_323': 1560.0, 'init_ShelterA_1_320': 1570.0, 'init_ShelterA_2_321': 1570.0, 'init_ShelterA_2_360': 1570.0, 'init_ShelterA_2_361': 1570.0, 'init_ShelterA_1_368': 1590.0, 'init_ShelterA_1_369': 1590.0, 'init_ShelterA_2_374': 1600.0, 'init_ShelterA_1_325': 1610.0, 'init_ShelterA_1_326': 1610.0, 'init_ShelterA_1_327': 1610.0, 'init_ShelterA_1_328': 1610.0, 'init_ShelterA_1_329': 1610.0, 'init_ShelterA_1_331': 1610.0, 'init_ShelterA_1_332': 1610.0, 'init_ShelterA_1_330': 1620.0, 'init_ShelterA_2_333': 1620.0, 'init_ShelterA_1_316': 1630.0, 'init_ShelterA_1_314': 1640.0, 'init_ShelterA_1_319': 1640.0, 'init_ShelterA_1_334': 1640.0, 'init_ShelterA_1_336': 1640.0, 'init_ShelterA_1_345': 1650.0, 'init_ShelterA_1_348': 1650.0, 'init_ShelterA_1_377': 1650.0, 'init_ShelterA_1_383': 1650.0, 'init_ShelterA_1_347': 1660.0, 'init_ShelterA_1_350': 1660.0, 'init_ShelterA_1_378': 1660.0, 'init_ShelterA_1_379': 1660.0, 'init_ShelterA_1_380': 1660.0, 'init_ShelterA_1_385': 1660.0, 'init_ShelterA_1_386': 1660.0, 'init_ShelterA_1_387': 1660.0, 'init_ShelterA_1_349': 1670.0, 'init_ShelterA_1_384': 1670.0, 'init_ShelterA_1_388': 1670.0, 'init_ShelterA_1_389': 1670.0, 'init_ShelterA_1_390': 1670.0, 'init_ShelterA_1_391': 1670.0, 'init_ShelterA_1_337': 1680.0, 'init_ShelterA_2_397': 1690.0, 'init_ShelterA_1_343': 1700.0, 'init_ShelterA_1_346': 1700.0, 'init_ShelterA_1_344': 1710.0, 'init_ShelterA_1_335': 1720.0, 'init_ShelterA_1_338': 1730.0, 'init_ShelterA_1_352': 1760.0, 'init_ShelterA_1_354': 1770.0, 'init_ShelterA_1_357': 1790.0, 'init_ShelterA_1_362': 1790.0, 'init_ShelterA_1_364': 1790.0, 'init_ShelterA_1_366': 1790.0, 'init_ShelterA_1_371': 1790.0, 'init_ShelterA_1_355': 1800.0, 'init_ShelterA_1_356': 1800.0, 'init_ShelterA_1_358': 1800.0, 'init_ShelterA_1_359': 1800.0, 'init_ShelterA_1_363': 1800.0, 'init_ShelterA_1_367': 1800.0, 'init_ShelterA_1_370': 1800.0, 'init_ShelterA_1_353': 1820.0, 'init_ShelterA_1_381': 1830.0, 'init_ShelterA_1_382': 1830.0, 'init_ShelterA_1_393': 1830.0, 'init_ShelterA_1_373': 1850.0, 'init_ShelterA_1_376': 1850.0, 'init_ShelterA_1_372': 1860.0, 'init_ShelterA_1_375': 1860.0, 'init_ShelterA_1_394': 1880.0, 'init_ShelterA_1_398': 1930.0, 'init_ShelterA_1_395': 1940.0, 'init_ShelterA_1_396': 1940.0}
pedestrian_count:0
route_changed_vehicle_count:308
route_change_event_count:308
rate_vehicle_abandonment:0.00%
wrong_way_driving_count:0
vehicle_abandonment_count:0
normalcy_bias_route_change_count:175
majority_bias_route_change_count:133
lane_changed_vehicle_count:0
info_obtained_lanechange_count:0
elapsed_time_lanechange_count:0
majority_bias_lanechange_count:0

=== Job Result ===
end=2026-07-13T03:19:55+0900
elapsed_seconds=382
exit_code=0
status=SUCCESS
