=== Job Info ===
job_name=va_s12_e1.0_v1.0_r43
host=schubert
pid=137918
scenario=12
early_rate=1.0
v2v_rate=1.0
run_id=43
config=/home/katagi/vehicle-assistant-system/scenarios/JIP/configs/config_scenario_12.toml
output_dir=/home/katagi/vehicle-assistant-system/schubert_logs/va_s12_e1.0_v1.0_r43
start=2026-07-13T03:22:08+0900
python_version=Python 3.12.3
sumo_version=Eclipse SUMO sumo Version v1_23_1+0435-630512a

=== Command ===
cd /home/katagi/vehicle-assistant-system/schubert_logs/va_s12_e1.0_v1.0_r43
PYTHONPATH=/home/katagi/vehicle-assistant-system:/home/katagi/tmp/sumo/tools:/home/katagi/local/sumo/tools:/home/katagi/tmp/sumo/tools:/home/katagi/local/sumo/tools:/home/katagi/tmp/sumo/tools:/home/katagi/local/sumo/tools: python3 -W ignore::UserWarning -m scenarios.JIP.1-1-4.simulation.runner_simulator --nogui /home/katagi/vehicle-assistant-system/scenarios/JIP/configs/config_scenario_12.toml 1.0 1.0
simulation_pid=137938
Step #0.00 (0ms ?*RT. ?UPS, TraCI: 329ms, vehicles TOT 1 ACT 1 BUF 0)                     Step #100.00 (1ms ~= 1000.00*RT, ~26000.00UPS, TraCI: 18ms, vehicles TOT 26 ACT 26 BUF 0) Step #200.00 (0ms ?*RT. ?UPS, TraCI: 39ms, vehicles TOT 51 ACT 51 BUF 0)                  Step #300.00 (0ms ?*RT. ?UPS, TraCI: 53ms, vehicles TOT 77 ACT 77 BUF 0)                  Step #400.00 (1ms ~= 1000.00*RT, ~104000.00UPS, TraCI: 1472ms, vehicles TOT 104 ACT 104 BUStep #500.00 (0ms ?*RT. ?UPS, TraCI: 1015ms, vehicles TOT 131 ACT 131 BUF 0)              Step #600.00 (0ms ?*RT. ?UPS, TraCI: 710ms, vehicles TOT 158 ACT 158 BUF 0)               Step #700.00 (1ms ~= 1000.00*RT, ~186000.00UPS, TraCI: 395ms, vehicles TOT 186 ACT 186 BUFStep #800.00 (1ms ~= 1000.00*RT, ~210000.00UPS, TraCI: 553ms, vehicles TOT 210 ACT 210 BUFStep #900.00 (1ms ~= 1000.00*RT, ~212000.00UPS, TraCI: 1151ms, vehicles TOT 239 ACT 212 BUStep #1000.00 (1ms ~= 1000.00*RT, ~231000.00UPS, TraCI: 992ms, vehicles TOT 276 ACT 231 BUStep #1100.00 (1ms ~= 1000.00*RT, ~254000.00UPS, TraCI: 297ms, vehicles TOT 303 ACT 254 BUStep #1200.00 (0ms ?*RT. ?UPS, TraCI: 1769ms, vehicles TOT 329 ACT 277 BUF 59)            Step #1300.00 (1ms ~= 1000.00*RT, ~300000.00UPS, TraCI: 1181ms, vehicles TOT 361 ACT 300 BStep #1400.00 (1ms ~= 1000.00*RT, ~324000.00UPS, TraCI: 2449ms, vehicles TOT 397 ACT 324 BStep #1500.00 (1ms ~= 1000.00*RT, ~336000.00UPS, TraCI: 1595ms, vehicles TOT 413 ACT 336 BStep #1600.00 (1ms ~= 1000.00*RT, ~360000.00UPS, TraCI: 1220ms, vehicles TOT 446 ACT 360 BStep #1700.00 (1ms ~= 1000.00*RT, ~383000.00UPS, TraCI: 938ms, vehicles TOT 482 ACT 383 BUStep #1800.00 (1ms ~= 1000.00*RT, ~400000.00UPS, TraCI: 1447ms, vehicles TOT 502 ACT 400 BStep #1900.00 (1ms ~= 1000.00*RT, ~400000.00UPS, TraCI: 1206ms, vehicles TOT 503 ACT 400 BStep #2000.00 (1ms ~= 1000.00*RT, ~400000.00UPS, TraCI: 556ms, vehicles TOT 503 ACT 400 BUStep #2100.00 (0ms ?*RT. ?UPS, TraCI: 370ms, vehicles TOT 503 ACT 400 BUF 0)              Step #2200.00 (0ms ?*RT. ?UPS, TraCI: 96ms, vehicles TOT 503 ACT 400 BUF 0)               Step #2300.00 (1ms ~= 1000.00*RT, ~400000.00UPS, TraCI: 91ms, vehicles TOT 503 ACT 400 BUFStep #2400.00 (0ms ?*RT. ?UPS, TraCI: 78ms, vehicles TOT 503 ACT 400 BUF 0)               Step #2500.00 (0ms ?*RT. ?UPS, TraCI: 77ms, vehicles TOT 503 ACT 400 BUF 0)               Step #2600.00 (0ms ?*RT. ?UPS, TraCI: 78ms, vehicles TOT 503 ACT 400 BUF 0)               Step #2700.00 (0ms ?*RT. ?UPS, TraCI: 78ms, vehicles TOT 503 ACT 400 BUF 0)               Step #2800.00 (0ms ?*RT. ?UPS, TraCI: 79ms, vehicles TOT 503 ACT 400 BUF 0)               Step #2900.00 (1ms ~= 1000.00*RT, ~400000.00UPS, TraCI: 78ms, vehicles TOT 503 ACT 400 BUFStep #3000.00 (0ms ?*RT. ?UPS, TraCI: 78ms, vehicles TOT 503 ACT 400 BUF 0)               
 Retrying in 1 seconds
出現数: {'A1': 367, 'A2': 33}
割合:
  Total: 400
  A1: 367 (91.75%)
  A2: 33 (8.25%)
  B1: 0 (0.00%)
  B2: 0 (0.00%)
mean elapsed_time: 530.4375
OK all vehs arrived 
平均渋滞継続時間: 439.66秒
OK all vehicle abandonment were detected
290
110
===== Simlation Result Summary =====
avg_congestion_duration: 439.66 
arrival_time_by_vehID_dict:{'init_ShelterA_1_0': 211.0, 'init_ShelterA_1_2': 221.0, 'init_ShelterA_1_3': 227.0, 'init_ShelterA_1_4': 233.0, 'init_ShelterA_1_5': 240.0, 'init_ShelterA_1_6': 245.0, 'init_ShelterA_1_7': 249.0, 'init_ShelterA_1_8': 281.0, 'init_ShelterA_1_9': 288.0, 'init_ShelterA_1_10': 293.0, 'init_ShelterA_1_12': 298.0, 'init_ShelterA_1_14': 304.0, 'init_ShelterA_2_1': 306.0, 'init_ShelterA_1_16': 310.0, 'init_ShelterA_1_17': 317.0, 'init_ShelterA_1_18': 324.0, 'init_ShelterA_1_19': 332.0, 'init_ShelterA_1_20': 342.0, 'init_ShelterA_1_21': 350.0, 'init_ShelterA_1_22': 356.0, 'init_ShelterA_1_23': 360.0, 'init_ShelterA_1_24': 365.0, 'init_ShelterA_1_25': 373.0, 'init_ShelterA_1_26': 379.0, 'init_ShelterA_1_27': 385.0, 'init_ShelterA_1_28': 391.0, 'init_ShelterA_2_11': 395.0, 'init_ShelterA_1_29': 397.0, 'init_ShelterA_2_13': 401.0, 'init_ShelterA_1_30': 403.0, 'init_ShelterA_2_15': 406.0, 'init_ShelterA_1_31': 410.0, 'init_ShelterA_1_32': 418.0, 'init_ShelterA_1_33': 426.0, 'init_ShelterA_1_34': 435.0, 'init_ShelterA_1_35': 444.0, 'init_ShelterA_1_36': 453.0, 'init_ShelterA_1_37': 463.0, 'init_ShelterA_1_38': 473.0, 'init_ShelterA_1_39': 480.0, 'init_ShelterA_1_40': 486.0, 'init_ShelterA_1_41': 491.0, 'init_ShelterA_1_42': 495.0, 'init_ShelterA_2_62': 554.0, 'init_ShelterA_1_43': 557.0, 'init_ShelterA_1_44': 559.0, 'init_ShelterA_1_45': 589.0, 'init_ShelterA_1_74': 590.0, 'init_ShelterA_1_46': 591.0, 'init_ShelterA_1_47': 594.0, 'init_ShelterA_1_48': 597.0, 'init_ShelterA_1_49': 600.0, 'init_ShelterA_1_50': 603.0, 'init_ShelterA_1_51': 606.0, 'init_ShelterA_1_52': 609.0, 'init_ShelterA_1_53': 612.0, 'init_ShelterA_1_54': 615.0, 'init_ShelterA_1_55': 618.0, 'init_ShelterA_1_56': 621.0, 'init_ShelterA_1_57': 624.0, 'init_ShelterA_1_58': 627.0, 'init_ShelterA_2_78': 631.0, 'init_ShelterA_2_80': 637.0, 'init_ShelterA_1_59': 640.0, 'init_ShelterA_2_82': 642.0, 'init_ShelterA_2_88': 657.0, 'init_ShelterA_1_60': 664.0, 'init_ShelterA_1_61': 666.0, 'init_ShelterA_1_63': 669.0, 'init_ShelterA_1_64': 672.0, 'init_ShelterA_1_65': 675.0, 'init_ShelterA_1_66': 677.0, 'init_ShelterA_1_67': 680.0, 'init_ShelterA_1_68': 684.0, 'init_ShelterA_1_69': 686.0, 'init_ShelterA_1_70': 689.0, 'init_ShelterA_1_71': 692.0, 'init_ShelterA_1_72': 700.0, 'init_ShelterA_1_73': 702.0, 'init_ShelterA_1_75': 722.0, 'init_ShelterA_1_76': 724.0, 'init_ShelterA_2_96': 731.0, 'init_ShelterA_1_77': 732.0, 'init_ShelterA_1_79': 747.0, 'init_ShelterA_1_81': 749.0, 'init_ShelterA_1_83': 752.0, 'init_ShelterA_1_84': 755.0, 'init_ShelterA_1_85': 757.0, 'init_ShelterA_1_86': 761.0, 'init_ShelterA_1_87': 766.0, 'init_ShelterA_1_89': 768.0, 'init_ShelterA_1_90': 770.0, 'init_ShelterA_1_91': 772.0, 'init_ShelterA_1_111': 826.0, 'init_ShelterA_1_92': 831.0, 'init_ShelterA_2_114': 832.0, 'init_ShelterA_1_93': 833.0, 'init_ShelterA_1_94': 835.0, 'init_ShelterA_1_95': 837.0, 'init_ShelterA_1_115': 846.0, 'init_ShelterA_1_97': 853.0, 'init_ShelterA_1_98': 855.0, 'init_ShelterA_1_99': 857.0, 'init_ShelterA_1_100': 859.0, 'init_ShelterA_1_101': 865.0, 'init_ShelterA_1_102': 867.0, 'init_ShelterA_1_103': 869.0, 'init_ShelterA_1_104': 872.0, 'init_ShelterA_1_105': 875.0, 'init_ShelterA_1_106': 878.0, 'init_ShelterA_1_107': 881.0, 'init_ShelterA_1_108': 883.0, 'init_ShelterA_2_126': 902.0, 'init_ShelterA_2_128': 905.0, 'init_ShelterA_2_132': 915.0, 'init_ShelterA_1_109': 922.0, 'init_ShelterA_1_110': 923.0, 'init_ShelterA_1_112': 925.0, 'init_ShelterA_1_113': 928.0, 'init_ShelterA_1_116': 934.0, 'init_ShelterA_1_117': 936.0, 'init_ShelterA_1_136': 936.0, 'init_ShelterA_1_118': 938.0, 'init_ShelterA_2_138': 938.0, 'init_ShelterA_1_119': 943.0, 'init_ShelterA_1_120': 945.0, 'init_ShelterA_1_121': 950.0, 'init_ShelterA_1_122': 959.0, 'init_ShelterA_1_123': 961.0, 'init_ShelterA_1_124': 963.0, 'init_ShelterA_1_125': 965.0, 'init_ShelterA_1_127': 994.0, 'init_ShelterA_1_129': 1009.0, 'init_ShelterA_1_130': 1014.0, 'init_ShelterA_1_131': 1017.0, 'init_ShelterA_1_133': 1018.0, 'init_ShelterA_1_134': 1027.0, 'init_ShelterA_1_135': 1028.0, 'init_ShelterA_1_137': 1033.0, 'init_ShelterA_1_139': 1035.0, 'init_ShelterA_1_140': 1038.0, 'init_ShelterA_1_141': 1062.0, 'init_ShelterA_1_142': 1063.0, 'init_ShelterA_1_143': 1092.0, 'init_ShelterA_1_144': 1094.0, 'init_ShelterA_1_145': 1108.0, 'init_ShelterA_1_146': 1110.0, 'init_ShelterA_2_171': 1111.0, 'init_ShelterA_1_147': 1117.0, 'init_ShelterA_1_148': 1119.0, 'init_ShelterA_1_149': 1121.0, 'init_ShelterA_1_150': 1123.0, 'init_ShelterA_1_151': 1126.0, 'init_ShelterA_1_152': 1129.0, 'init_ShelterA_1_153': 1131.0, 'init_ShelterA_1_154': 1142.0, 'init_ShelterA_1_155': 1144.0, 'init_ShelterA_1_156': 1146.0, 'init_ShelterA_1_157': 1148.0, 'init_ShelterA_1_158': 1150.0, 'init_ShelterA_1_159': 1153.0, 'init_ShelterA_1_160': 1170.0, 'init_ShelterA_1_161': 1180.0, 'init_ShelterA_1_162': 1182.0, 'init_ShelterA_1_163': 1194.0, 'init_ShelterA_1_164': 1195.0, 'init_ShelterA_1_165': 1197.0, 'init_ShelterA_1_166': 1215.0, 'init_ShelterA_1_167': 1236.0, 'init_ShelterA_1_168': 1238.0, 'init_ShelterA_1_169': 1240.0, 'init_ShelterA_1_170': 1242.0, 'init_ShelterA_1_172': 1244.0, 'init_ShelterA_1_173': 1246.0, 'init_ShelterA_1_174': 1249.0, 'init_ShelterA_1_175': 1252.0, 'init_ShelterA_1_176': 1255.0, 'init_ShelterA_1_177': 1289.0, 'init_ShelterA_1_178': 1291.0, 'init_ShelterA_1_179': 1297.0, 'init_ShelterA_1_180': 1299.0, 'init_ShelterA_1_181': 1301.0, 'init_ShelterA_1_182': 1303.0, 'init_ShelterA_1_183': 1305.0, 'init_ShelterA_1_184': 1310.0, 'init_ShelterA_1_185': 1313.0, 'newveh_ShelterA_2_186_0': 1333.0, 'init_ShelterA_1_213': 1335.0, 'init_ShelterA_1_214': 1338.0, 'init_ShelterA_1_215': 1340.0, 'init_ShelterA_1_216': 1341.0, 'init_ShelterA_1_217': 1344.0, 'newveh_ShelterA_2_187_1': 1361.0, 'newveh_ShelterA_2_188_2': 1366.0, 'newveh_ShelterA_1_212_26': 1370.0, 'newveh_ShelterA_2_191_4': 1377.0, 'newveh_ShelterA_1_210_25': 1378.0, 'newveh_ShelterA_1_208_24': 1383.0, 'newveh_ShelterA_1_203_23': 1387.0, 'newveh_ShelterA_2_189_3': 1394.0, 'newveh_ShelterA_1_190_22': 1395.0, 'init_ShelterA_1_219': 1400.0, 'newveh_ShelterA_2_193_6': 1401.0, 'init_ShelterA_1_220': 1404.0, 'newveh_ShelterA_2_192_5': 1407.0, 'newveh_ShelterA_2_194_7': 1412.0, 'newveh_ShelterA_2_195_8': 1418.0, 'newveh_ShelterA_2_196_9': 1425.0, 'newveh_ShelterA_2_197_10': 1432.0, 'newveh_ShelterA_2_198_11': 1440.0, 'newveh_ShelterA_2_199_12': 1449.0, 'init_ShelterA_1_246': 1457.0, 'newveh_ShelterA_2_200_13': 1457.0, 'init_ShelterA_1_248': 1462.0, 'init_ShelterA_2_253': 1465.0, 'newveh_ShelterA_2_201_14': 1467.0, 'init_ShelterA_2_256': 1468.0, 'newveh_ShelterA_2_202_15': 1476.0, 'newveh_ShelterA_2_205_17': 1486.0, 'newveh_ShelterA_1_226_28': 1488.0, 'newveh_ShelterA_2_204_16': 1495.0, 'init_ShelterA_1_264': 1498.0, 'newveh_ShelterA_2_206_18': 1505.0, 'newveh_ShelterA_2_207_19': 1515.0, 'newveh_ShelterA_2_209_20': 1525.0, 'newveh_ShelterA_2_211_21': 1546.0, 'init_ShelterA_1_218': 1548.0, 'init_ShelterA_1_221': 1550.0, 'init_ShelterA_1_222': 1552.0, 'init_ShelterA_1_223': 1554.0, 'init_ShelterA_1_228': 1556.0, 'init_ShelterA_1_229': 1559.0, 'init_ShelterA_1_232': 1562.0, 'newveh_ShelterA_1_243_44': 1576.0, 'newveh_ShelterA_2_252_52': 1579.0, 'init_ShelterA_1_245': 1581.0, 'init_ShelterA_1_247': 1583.0, 'init_ShelterA_1_249': 1585.0, 'init_ShelterA_1_271': 1585.0, 'init_ShelterA_1_250': 1587.0, 'init_ShelterA_1_251': 1589.0, 'init_ShelterA_1_255': 1592.0, 'init_ShelterA_1_258': 1594.0, 'newveh_ShelterA_2_230_27': 1603.0, 'newveh_ShelterA_2_233_30': 1608.0, 'newveh_ShelterA_2_231_29': 1613.0, 'newveh_ShelterA_2_235_32': 1618.0, 'newveh_ShelterA_2_263_60': 1624.0, 'newveh_ShelterA_2_262_59': 1629.0, 'init_ShelterA_1_272': 1634.0, 'newveh_ShelterA_2_254_58': 1634.0, 'newveh_ShelterA_2_277_65': 1639.0, 'newveh_ShelterA_2_234_31': 1643.0, 'init_ShelterA_1_278': 1653.0, 'newveh_ShelterA_2_236_33': 1656.0, 'init_ShelterA_1_265': 1658.0, 'init_ShelterA_1_279': 1658.0, 'init_ShelterA_1_281': 1663.0, 'init_ShelterA_2_293': 1665.0, 'newveh_ShelterA_2_240_40': 1667.0, 'newveh_ShelterA_2_239_39': 1673.0, 'newveh_ShelterA_2_238_38': 1683.0, 'newveh_ShelterA_2_237_37': 1691.0, 'init_ShelterA_1_266': 1694.0, 'init_ShelterA_1_267': 1696.0, 'newveh_ShelterA_2_224_34': 1703.0, 'newveh_ShelterA_2_227_36': 1709.0, 'newveh_ShelterA_2_225_35': 1717.0, 'newveh_ShelterA_2_242_42': 1723.0, 'newveh_ShelterA_2_241_41': 1730.0, 'newveh_ShelterA_2_244_43': 1738.0, 'newveh_ShelterA_2_292_76': 1745.0, 'newveh_ShelterA_2_291_75': 1752.0, 'init_ShelterA_1_313': 1763.0, 'newveh_ShelterA_2_283_74': 1772.0, 'init_ShelterA_1_273': 1775.0, 'init_ShelterA_1_274': 1777.0, 'init_ShelterA_1_275': 1779.0, 'init_ShelterA_1_276': 1781.0, 'init_ShelterA_1_280': 1783.0, 'init_ShelterA_1_282': 1785.0, 'newveh_ShelterA_2_257_45': 1796.0, 'newveh_ShelterA_2_259_46': 1807.0, 'init_ShelterA_1_289': 1809.0, 'init_ShelterA_1_290': 1811.0, 'init_ShelterA_1_294': 1814.0, 'newveh_ShelterA_2_316_80': 1821.0, 'newveh_ShelterA_2_260_47': 1827.0, 'newveh_ShelterA_2_261_48': 1832.0, 'init_ShelterA_1_295': 1834.0, 'init_ShelterA_1_296': 1836.0, 'init_ShelterA_1_297': 1838.0, 'init_ShelterA_1_298': 1840.0, 'init_ShelterA_1_299': 1842.0, 'init_ShelterA_1_300': 1855.0, 'init_ShelterA_1_301': 1857.0, 'init_ShelterA_1_302': 1859.0, 'init_ShelterA_1_305': 1861.0, 'init_ShelterA_1_306': 1863.0, 'init_ShelterA_1_307': 1866.0, 'init_ShelterA_1_308': 1876.0, 'init_ShelterA_1_311': 1878.0, 'newveh_ShelterA_2_315_79': 1897.0, 'newveh_ShelterA_2_310_78': 1903.0, 'newveh_ShelterA_2_304_77': 1908.0, 'init_ShelterA_1_342': 1910.0, 'newveh_ShelterA_2_340_88': 1914.0, 'init_ShelterA_1_345': 1916.0, 'init_ShelterA_1_347': 1923.0, 'newveh_ShelterA_2_270_51': 1923.0, 'newveh_ShelterA_2_269_50': 1927.0, 'newveh_ShelterA_2_268_49': 1932.0, 'init_ShelterA_1_317': 1934.0, 'init_ShelterA_1_318': 1936.0, 'init_ShelterA_1_319': 1938.0, 'init_ShelterA_1_320': 1940.0, 'init_ShelterA_1_321': 1942.0, 'init_ShelterA_1_323': 1944.0, 'init_ShelterA_1_329': 1946.0, 'init_ShelterA_1_330': 1948.0, 'init_ShelterA_1_331': 1951.0, 'init_ShelterA_1_332': 1953.0, 'init_ShelterA_1_333': 1956.0, 'init_ShelterA_1_334': 1959.0, 'init_ShelterA_1_337': 1962.0, 'init_ShelterA_1_338': 1964.0, 'newveh_ShelterA_2_339_87': 1979.0, 'newveh_ShelterA_2_336_86': 1989.0, 'init_ShelterA_2_359': 1991.0, 'newveh_ShelterA_2_352_98': 1993.0, 'init_ShelterA_1_341': 1996.0, 'init_ShelterA_1_343': 1998.0, 'init_ShelterA_1_346': 2000.0, 'newveh_ShelterA_2_284_53': 2027.0, 'newveh_ShelterA_1_303_61': 2029.0, 'newveh_ShelterA_2_288_57': 2034.0, 'newveh_ShelterA_1_312_62': 2037.0, 'newveh_ShelterA_2_287_56': 2040.0, 'newveh_ShelterA_1_314_64': 2041.0, 'newveh_ShelterA_1_309_63': 2046.0, 'newveh_ShelterA_2_286_55': 2047.0, 'newveh_ShelterA_2_285_54': 2064.0, 'init_ShelterA_1_348': 2067.0, 'init_ShelterA_1_349': 2069.0, 'init_ShelterA_1_350': 2071.0, 'init_ShelterA_1_351': 2073.0, 'init_ShelterA_1_353': 2075.0, 'init_ShelterA_1_354': 2077.0, 'newveh_ShelterA_2_371_99': 2086.0, 'init_ShelterA_1_376': 2088.0, 'newveh_ShelterA_2_372_100': 2092.0, 'newveh_ShelterA_2_374_101': 2097.0, 'init_ShelterA_1_379': 2098.0, 'init_ShelterA_1_355': 2099.0, 'init_ShelterA_1_356': 2101.0, 'init_ShelterA_1_357': 2103.0, 'init_ShelterA_1_384': 2104.0, 'init_ShelterA_1_358': 2105.0, 'init_ShelterA_1_360': 2107.0, 'init_ShelterA_1_389': 2108.0, 'init_ShelterA_1_361': 2109.0, 'init_ShelterA_1_362': 2111.0, 'init_ShelterA_1_363': 2114.0, 'init_ShelterA_1_397': 2114.0, 'init_ShelterA_1_365': 2115.0, 'init_ShelterA_1_367': 2118.0, 'init_ShelterA_1_368': 2120.0, 'init_ShelterA_1_375': 2123.0, 'init_ShelterA_1_398': 2125.0, 'newveh_ShelterA_2_395_102': 2151.0, 'init_ShelterA_1_377': 2163.0, 'init_ShelterA_1_378': 2165.0, 'init_ShelterA_1_380': 2173.0, 'init_ShelterA_1_381': 2195.0, 'init_ShelterA_1_388': 2197.0, 'init_ShelterA_1_390': 2199.0, 'newveh_ShelterA_1_391_93': 2199.0, 'init_ShelterA_1_396': 2201.0, 'newveh_ShelterA_1_382_89': 2209.0, 'newveh_ShelterA_2_324_66': 2220.0, 'newveh_ShelterA_2_335_67': 2227.0, 'newveh_ShelterA_2_322_68': 2236.0, 'newveh_ShelterA_2_370_81': 2240.0, 'newveh_ShelterA_2_344_73': 2244.0, 'init_ShelterA_1_399': 2256.0, 'newveh_ShelterA_2_325_69': 2277.0, 'newveh_ShelterA_2_326_70': 2285.0, 'newveh_ShelterA_2_328_72': 2290.0, 'newveh_ShelterA_2_327_71': 2296.0, 'newveh_ShelterA_2_364_82': 2301.0, 'newveh_ShelterA_2_369_84': 2306.0, 'newveh_ShelterA_2_366_83': 2311.0, 'newveh_ShelterA_2_373_85': 2317.0, 'newveh_ShelterA_2_394_92': 2324.0, 'newveh_ShelterA_2_393_91': 2330.0, 'newveh_ShelterA_2_392_90': 2338.0, 'newveh_ShelterA_2_386_96': 2344.0, 'newveh_ShelterA_2_385_95': 2351.0, 'newveh_ShelterA_2_383_94': 2356.0, 'newveh_ShelterA_2_387_97': 2360.0}
vehicle_abandant_time_by_pedestrianID_dict:{}
walking_distance_by_pedestrianID_dict:{}
route_change_time_by_vehID_dict:{'init_ShelterA_1_44': 370.0, 'init_ShelterA_1_45': 370.0, 'init_ShelterA_1_48': 370.0, 'init_ShelterA_1_50': 370.0, 'init_ShelterA_1_51': 370.0, 'init_ShelterA_1_52': 370.0, 'init_ShelterA_1_53': 370.0, 'init_ShelterA_1_43': 380.0, 'init_ShelterA_1_46': 380.0, 'init_ShelterA_1_47': 380.0, 'init_ShelterA_1_49': 380.0, 'init_ShelterA_1_54': 400.0, 'init_ShelterA_1_55': 400.0, 'init_ShelterA_1_56': 410.0, 'init_ShelterA_1_57': 410.0, 'init_ShelterA_1_58': 410.0, 'init_ShelterA_1_60': 430.0, 'init_ShelterA_1_61': 430.0, 'init_ShelterA_2_62': 430.0, 'init_ShelterA_1_63': 440.0, 'init_ShelterA_1_65': 440.0, 'init_ShelterA_1_66': 440.0, 'init_ShelterA_1_59': 450.0, 'init_ShelterA_1_64': 460.0, 'init_ShelterA_1_67': 460.0, 'init_ShelterA_1_69': 460.0, 'init_ShelterA_1_70': 460.0, 'init_ShelterA_2_78': 490.0, 'init_ShelterA_2_88': 490.0, 'init_ShelterA_1_72': 500.0, 'init_ShelterA_1_73': 500.0, 'init_ShelterA_1_86': 500.0, 'init_ShelterA_1_68': 510.0, 'init_ShelterA_1_71': 510.0, 'init_ShelterA_1_75': 510.0, 'init_ShelterA_1_76': 510.0, 'init_ShelterA_1_77': 510.0, 'init_ShelterA_1_81': 520.0, 'init_ShelterA_1_83': 520.0, 'init_ShelterA_1_84': 520.0, 'init_ShelterA_1_85': 520.0, 'init_ShelterA_2_80': 520.0, 'init_ShelterA_2_82': 520.0, 'init_ShelterA_1_79': 550.0, 'init_ShelterA_1_87': 550.0, 'init_ShelterA_1_89': 550.0, 'init_ShelterA_1_90': 580.0, 'init_ShelterA_1_91': 580.0, 'init_ShelterA_1_92': 580.0, 'init_ShelterA_1_94': 590.0, 'init_ShelterA_1_95': 590.0, 'init_ShelterA_2_96': 590.0, 'init_ShelterA_1_104': 600.0, 'init_ShelterA_1_97': 600.0, 'init_ShelterA_1_100': 610.0, 'init_ShelterA_1_101': 610.0, 'init_ShelterA_1_102': 610.0, 'init_ShelterA_1_103': 610.0, 'init_ShelterA_1_105': 610.0, 'init_ShelterA_1_106': 610.0, 'init_ShelterA_1_107': 610.0, 'init_ShelterA_1_93': 610.0, 'init_ShelterA_1_98': 610.0, 'init_ShelterA_1_99': 610.0, 'init_ShelterA_1_108': 660.0, 'init_ShelterA_1_109': 670.0, 'init_ShelterA_1_110': 670.0, 'init_ShelterA_2_114': 680.0, 'init_ShelterA_1_113': 690.0, 'init_ShelterA_1_116': 690.0, 'init_ShelterA_1_117': 690.0, 'init_ShelterA_1_118': 690.0, 'init_ShelterA_1_120': 690.0, 'init_ShelterA_1_121': 690.0, 'init_ShelterA_1_122': 690.0, 'init_ShelterA_1_123': 690.0, 'init_ShelterA_1_124': 690.0, 'init_ShelterA_1_125': 690.0, 'init_ShelterA_1_112': 700.0, 'init_ShelterA_1_119': 700.0, 'init_ShelterA_2_128': 730.0, 'init_ShelterA_1_127': 750.0, 'init_ShelterA_1_129': 750.0, 'init_ShelterA_1_130': 750.0, 'init_ShelterA_2_126': 750.0, 'init_ShelterA_1_131': 760.0, 'init_ShelterA_1_133': 760.0, 'init_ShelterA_1_135': 760.0, 'init_ShelterA_2_132': 760.0, 'init_ShelterA_1_134': 770.0, 'init_ShelterA_2_138': 770.0, 'init_ShelterA_1_186': 810.0, 'init_ShelterA_1_187': 810.0, 'init_ShelterA_1_188': 810.0, 'init_ShelterA_1_189': 810.0, 'init_ShelterA_1_191': 810.0, 'init_ShelterA_1_192': 810.0, 'init_ShelterA_1_193': 810.0, 'init_ShelterA_1_194': 810.0, 'init_ShelterA_1_195': 810.0, 'init_ShelterA_1_196': 810.0, 'init_ShelterA_1_197': 810.0, 'init_ShelterA_1_198': 810.0, 'init_ShelterA_1_199': 810.0, 'init_ShelterA_1_200': 810.0, 'init_ShelterA_1_201': 810.0, 'init_ShelterA_1_202': 810.0, 'init_ShelterA_1_204': 810.0, 'init_ShelterA_1_205': 810.0, 'init_ShelterA_1_206': 810.0, 'init_ShelterA_1_207': 810.0, 'init_ShelterA_1_209': 810.0, 'init_ShelterA_1_211': 810.0, 'init_ShelterA_2_190': 810.0, 'init_ShelterA_2_203': 810.0, 'init_ShelterA_2_208': 810.0, 'init_ShelterA_2_210': 810.0, 'init_ShelterA_2_212': 810.0, 'init_ShelterA_1_137': 820.0, 'init_ShelterA_1_139': 820.0, 'init_ShelterA_1_142': 830.0, 'init_ShelterA_1_143': 830.0, 'init_ShelterA_1_144': 830.0, 'init_ShelterA_1_141': 840.0, 'init_ShelterA_1_146': 840.0, 'init_ShelterA_1_147': 840.0, 'init_ShelterA_1_140': 850.0, 'init_ShelterA_1_145': 850.0, 'init_ShelterA_1_149': 850.0, 'init_ShelterA_1_150': 850.0, 'init_ShelterA_1_152': 850.0, 'init_ShelterA_1_153': 850.0, 'init_ShelterA_1_155': 850.0, 'init_ShelterA_1_148': 860.0, 'init_ShelterA_1_151': 860.0, 'init_ShelterA_1_154': 860.0, 'init_ShelterA_1_157': 860.0, 'init_ShelterA_1_158': 860.0, 'init_ShelterA_1_160': 860.0, 'init_ShelterA_1_161': 860.0, 'init_ShelterA_1_156': 870.0, 'init_ShelterA_1_159': 870.0, 'init_ShelterA_1_162': 910.0, 'init_ShelterA_1_163': 920.0, 'init_ShelterA_1_164': 920.0, 'init_ShelterA_1_165': 920.0, 'init_ShelterA_1_166': 930.0, 'init_ShelterA_1_167': 940.0, 'init_ShelterA_1_168': 940.0, 'init_ShelterA_1_169': 940.0, 'init_ShelterA_1_170': 940.0, 'init_ShelterA_1_172': 940.0, 'init_ShelterA_2_171': 940.0, 'init_ShelterA_1_173': 950.0, 'init_ShelterA_1_176': 950.0, 'init_ShelterA_1_177': 950.0, 'init_ShelterA_1_179': 950.0, 'init_ShelterA_1_174': 960.0, 'init_ShelterA_1_178': 960.0, 'init_ShelterA_1_230': 960.0, 'init_ShelterA_2_226': 960.0, 'init_ShelterA_1_231': 970.0, 'init_ShelterA_1_233': 970.0, 'init_ShelterA_1_234': 970.0, 'init_ShelterA_1_235': 970.0, 'init_ShelterA_1_236': 970.0, 'init_ShelterA_1_224': 980.0, 'init_ShelterA_1_225': 980.0, 'init_ShelterA_1_227': 980.0, 'init_ShelterA_1_237': 980.0, 'init_ShelterA_1_238': 980.0, 'init_ShelterA_1_239': 980.0, 'init_ShelterA_1_240': 980.0, 'init_ShelterA_1_241': 990.0, 'init_ShelterA_1_242': 990.0, 'init_ShelterA_1_244': 990.0, 'init_ShelterA_2_243': 990.0, 'init_ShelterA_1_175': 1010.0, 'init_ShelterA_1_182': 1020.0, 'init_ShelterA_1_214': 1030.0, 'init_ShelterA_1_217': 1030.0, 'init_ShelterA_1_184': 1040.0, 'init_ShelterA_1_185': 1040.0, 'init_ShelterA_1_213': 1040.0, 'init_ShelterA_1_215': 1040.0, 'init_ShelterA_1_216': 1040.0, 'init_ShelterA_2_253': 1040.0, 'init_ShelterA_1_180': 1050.0, 'init_ShelterA_1_181': 1050.0, 'init_ShelterA_1_183': 1050.0, 'init_ShelterA_1_257': 1050.0, 'init_ShelterA_1_259': 1060.0, 'init_ShelterA_1_260': 1070.0, 'init_ShelterA_1_261': 1070.0, 'init_ShelterA_1_268': 1140.0, 'init_ShelterA_1_269': 1140.0, 'init_ShelterA_1_270': 1140.0, 'init_ShelterA_1_221': 1200.0, 'init_ShelterA_1_232': 1210.0, 'init_ShelterA_1_228': 1220.0, 'init_ShelterA_1_229': 1220.0, 'init_ShelterA_1_245': 1220.0, 'init_ShelterA_1_251': 1220.0, 'init_ShelterA_1_252': 1220.0, 'init_ShelterA_1_223': 1230.0, 'init_ShelterA_1_249': 1230.0, 'init_ShelterA_1_250': 1230.0, 'init_ShelterA_1_218': 1240.0, 'init_ShelterA_1_222': 1240.0, 'init_ShelterA_1_247': 1240.0, 'init_ShelterA_1_255': 1240.0, 'init_ShelterA_1_284': 1240.0, 'init_ShelterA_1_285': 1240.0, 'init_ShelterA_1_286': 1240.0, 'init_ShelterA_1_287': 1240.0, 'init_ShelterA_1_288': 1240.0, 'init_ShelterA_1_258': 1250.0, 'init_ShelterA_2_256': 1250.0, 'init_ShelterA_1_254': 1260.0, 'init_ShelterA_1_262': 1260.0, 'init_ShelterA_1_263': 1260.0, 'init_ShelterA_1_265': 1270.0, 'init_ShelterA_1_266': 1300.0, 'init_ShelterA_1_267': 1300.0, 'init_ShelterA_1_274': 1310.0, 'init_ShelterA_1_275': 1310.0, 'init_ShelterA_1_276': 1310.0, 'init_ShelterA_1_273': 1320.0, 'init_ShelterA_2_303': 1320.0, 'init_ShelterA_2_312': 1320.0, 'init_ShelterA_2_309': 1330.0, 'init_ShelterA_2_314': 1330.0, 'init_ShelterA_1_277': 1360.0, 'init_ShelterA_1_324': 1390.0, 'init_ShelterA_1_335': 1390.0, 'init_ShelterA_1_322': 1400.0, 'init_ShelterA_1_325': 1400.0, 'init_ShelterA_1_326': 1400.0, 'init_ShelterA_1_327': 1400.0, 'init_ShelterA_1_328': 1400.0, 'init_ShelterA_1_344': 1420.0, 'init_ShelterA_1_280': 1440.0, 'init_ShelterA_1_283': 1440.0, 'init_ShelterA_1_291': 1440.0, 'init_ShelterA_1_292': 1440.0, 'init_ShelterA_2_293': 1440.0, 'init_ShelterA_1_296': 1450.0, 'init_ShelterA_1_298': 1470.0, 'init_ShelterA_1_299': 1470.0, 'init_ShelterA_1_300': 1470.0, 'init_ShelterA_1_301': 1470.0, 'init_ShelterA_1_311': 1480.0, 'init_ShelterA_1_295': 1500.0, 'init_ShelterA_1_289': 1510.0, 'init_ShelterA_1_294': 1510.0, 'init_ShelterA_1_297': 1520.0, 'init_ShelterA_1_302': 1520.0, 'init_ShelterA_1_305': 1520.0, 'init_ShelterA_1_306': 1520.0, 'init_ShelterA_1_307': 1520.0, 'init_ShelterA_1_308': 1520.0, 'init_ShelterA_1_304': 1530.0, 'init_ShelterA_1_310': 1530.0, 'init_ShelterA_1_315': 1530.0, 'init_ShelterA_1_316': 1530.0, 'init_ShelterA_1_282': 1550.0, 'init_ShelterA_1_290': 1550.0, 'init_ShelterA_1_317': 1560.0, 'init_ShelterA_1_318': 1560.0, 'init_ShelterA_1_332': 1570.0, 'init_ShelterA_1_333': 1570.0, 'init_ShelterA_1_334': 1570.0, 'init_ShelterA_1_337': 1570.0, 'init_ShelterA_1_338': 1570.0, 'init_ShelterA_1_370': 1570.0, 'init_ShelterA_1_331': 1580.0, 'init_ShelterA_1_364': 1580.0, 'init_ShelterA_1_366': 1580.0, 'init_ShelterA_1_369': 1580.0, 'init_ShelterA_1_373': 1580.0, 'init_ShelterA_1_330': 1590.0, 'init_ShelterA_1_320': 1600.0, 'init_ShelterA_1_321': 1600.0, 'init_ShelterA_1_323': 1600.0, 'init_ShelterA_1_319': 1610.0, 'init_ShelterA_1_329': 1610.0, 'init_ShelterA_1_336': 1620.0, 'init_ShelterA_1_339': 1620.0, 'init_ShelterA_1_340': 1620.0, 'init_ShelterA_1_346': 1650.0, 'init_ShelterA_2_382': 1650.0, 'init_ShelterA_1_343': 1660.0, 'init_ShelterA_1_351': 1660.0, 'init_ShelterA_1_354': 1660.0, 'init_ShelterA_1_392': 1660.0, 'init_ShelterA_1_393': 1660.0, 'init_ShelterA_1_394': 1660.0, 'init_ShelterA_2_391': 1660.0, 'init_ShelterA_1_349': 1670.0, 'init_ShelterA_1_383': 1670.0, 'init_ShelterA_1_385': 1670.0, 'init_ShelterA_1_386': 1670.0, 'init_ShelterA_1_387': 1670.0, 'init_ShelterA_1_348': 1680.0, 'init_ShelterA_1_352': 1700.0, 'init_ShelterA_1_360': 1730.0, 'init_ShelterA_1_361': 1730.0, 'init_ShelterA_2_359': 1730.0, 'init_ShelterA_1_341': 1740.0, 'init_ShelterA_1_358': 1740.0, 'init_ShelterA_1_363': 1770.0, 'init_ShelterA_1_365': 1770.0, 'init_ShelterA_1_371': 1780.0, 'init_ShelterA_1_372': 1790.0, 'init_ShelterA_1_374': 1800.0, 'init_ShelterA_1_350': 1810.0, 'init_ShelterA_1_353': 1820.0, 'init_ShelterA_1_355': 1820.0, 'init_ShelterA_1_356': 1820.0, 'init_ShelterA_1_357': 1820.0, 'init_ShelterA_1_377': 1820.0, 'init_ShelterA_1_396': 1820.0, 'init_ShelterA_1_378': 1870.0, 'init_ShelterA_1_381': 1870.0, 'init_ShelterA_1_388': 1870.0, 'init_ShelterA_1_395': 1870.0, 'init_ShelterA_1_380': 1880.0, 'init_ShelterA_1_375': 1910.0, 'init_ShelterA_1_367': 1920.0, 'init_ShelterA_1_368': 1920.0, 'init_ShelterA_1_362': 1930.0, 'init_ShelterA_1_399': 1950.0, 'init_ShelterA_1_390': 1990.0}
pedestrian_count:0
route_changed_vehicle_count:333
route_change_event_count:333
rate_vehicle_abandonment:0.00%
wrong_way_driving_count:0
vehicle_abandonment_count:0
normalcy_bias_route_change_count:153
majority_bias_route_change_count:180
lane_changed_vehicle_count:0
info_obtained_lanechange_count:0
elapsed_time_lanechange_count:0
majority_bias_lanechange_count:0

=== Job Result ===
end=2026-07-13T03:28:20+0900
elapsed_seconds=372
exit_code=0
status=SUCCESS
