=== Job Info ===
job_name=va_s6_e1.0_v1.0_r23
host=schubert
pid=119861
scenario=6
early_rate=1.0
v2v_rate=1.0
run_id=23
config=/home/katagi/vehicle-assistant-system/scenarios/JIP/configs/config_scenario_6.toml
output_dir=/home/katagi/vehicle-assistant-system/schubert_logs/va_s6_e1.0_v1.0_r23
start=2026-07-13T01:55:42+0900
python_version=Python 3.12.3
sumo_version=Eclipse SUMO sumo Version v1_23_1+0435-630512a

=== Command ===
cd /home/katagi/vehicle-assistant-system/schubert_logs/va_s6_e1.0_v1.0_r23
PYTHONPATH=/home/katagi/vehicle-assistant-system:/home/katagi/tmp/sumo/tools:/home/katagi/local/sumo/tools:/home/katagi/tmp/sumo/tools:/home/katagi/local/sumo/tools:/home/katagi/tmp/sumo/tools:/home/katagi/local/sumo/tools: python3 -W ignore::UserWarning -m scenarios.JIP.1-1-4.simulation.runner_simulator --nogui /home/katagi/vehicle-assistant-system/scenarios/JIP/configs/config_scenario_6.toml 1.0 1.0
simulation_pid=119881
Step #0.00 (0ms ?*RT. ?UPS, TraCI: 336ms, vehicles TOT 1 ACT 1 BUF 0)                     Step #100.00 (0ms ?*RT. ?UPS, TraCI: 17ms, vehicles TOT 26 ACT 26 BUF 0)                  Step #200.00 (0ms ?*RT. ?UPS, TraCI: 35ms, vehicles TOT 51 ACT 51 BUF 0)                  Step #300.00 (0ms ?*RT. ?UPS, TraCI: 56ms, vehicles TOT 77 ACT 77 BUF 0)                  Step #400.00 (1ms ~= 1000.00*RT, ~104000.00UPS, TraCI: 581ms, vehicles TOT 104 ACT 104 BUFStep #500.00 (1ms ~= 1000.00*RT, ~131000.00UPS, TraCI: 1508ms, vehicles TOT 133 ACT 131 BUStep #600.00 (1ms ~= 1000.00*RT, ~158000.00UPS, TraCI: 1205ms, vehicles TOT 160 ACT 158 BUStep #700.00 (1ms ~= 1000.00*RT, ~177000.00UPS, TraCI: 2120ms, vehicles TOT 201 ACT 177 BUStep #800.00 (1ms ~= 1000.00*RT, ~194000.00UPS, TraCI: 998ms, vehicles TOT 232 ACT 194 BUFStep #900.00 (1ms ~= 1000.00*RT, ~214000.00UPS, TraCI: 1188ms, vehicles TOT 259 ACT 214 BUStep #1000.00 (1ms ~= 1000.00*RT, ~227000.00UPS, TraCI: 815ms, vehicles TOT 296 ACT 227 BUStep #1100.00 (1ms ~= 1000.00*RT, ~253000.00UPS, TraCI: 1601ms, vehicles TOT 328 ACT 253 BStep #1200.00 (1ms ~= 1000.00*RT, ~275000.00UPS, TraCI: 1211ms, vehicles TOT 354 ACT 275 BStep #1300.00 (1ms ~= 1000.00*RT, ~302000.00UPS, TraCI: 1774ms, vehicles TOT 389 ACT 302 BStep #1400.00 (0ms ?*RT. ?UPS, TraCI: 1927ms, vehicles TOT 424 ACT 317 BUF 83)            Step #1500.00 (1ms ~= 1000.00*RT, ~338000.00UPS, TraCI: 2034ms, vehicles TOT 459 ACT 338 BStep #1600.00 (1ms ~= 1000.00*RT, ~355000.00UPS, TraCI: 943ms, vehicles TOT 487 ACT 355 BUStep #1700.00 (1ms ~= 1000.00*RT, ~384000.00UPS, TraCI: 1739ms, vehicles TOT 524 ACT 384 BStep #1800.00 (1ms ~= 1000.00*RT, ~400000.00UPS, TraCI: 1382ms, vehicles TOT 544 ACT 400 BStep #1900.00 (0ms ?*RT. ?UPS, TraCI: 830ms, vehicles TOT 545 ACT 400 BUF 0)              Step #2000.00 (0ms ?*RT. ?UPS, TraCI: 398ms, vehicles TOT 545 ACT 400 BUF 0)              Step #2100.00 (1ms ~= 1000.00*RT, ~400000.00UPS, TraCI: 245ms, vehicles TOT 545 ACT 400 BUStep #2200.00 (1ms ~= 1000.00*RT, ~400000.00UPS, TraCI: 103ms, vehicles TOT 545 ACT 400 BUStep #2300.00 (1ms ~= 1000.00*RT, ~400000.00UPS, TraCI: 99ms, vehicles TOT 545 ACT 400 BUFStep #2400.00 (1ms ~= 1000.00*RT, ~400000.00UPS, TraCI: 94ms, vehicles TOT 545 ACT 400 BUFStep #2500.00 (0ms ?*RT. ?UPS, TraCI: 78ms, vehicles TOT 545 ACT 400 BUF 0)               Step #2600.00 (0ms ?*RT. ?UPS, TraCI: 78ms, vehicles TOT 545 ACT 400 BUF 0)               Step #2700.00 (0ms ?*RT. ?UPS, TraCI: 78ms, vehicles TOT 545 ACT 400 BUF 0)               Step #2800.00 (0ms ?*RT. ?UPS, TraCI: 77ms, vehicles TOT 545 ACT 400 BUF 0)               Step #2900.00 (0ms ?*RT. ?UPS, TraCI: 78ms, vehicles TOT 545 ACT 400 BUF 0)               Step #3000.00 (0ms ?*RT. ?UPS, TraCI: 76ms, vehicles TOT 545 ACT 400 BUF 0)               
 Retrying in 1 seconds
出現数: {'A1': 365, 'A2': 35}
割合:
  Total: 400
  A1: 365 (91.25%)
  A2: 35 (8.75%)
  B1: 0 (0.00%)
  B2: 0 (0.00%)
mean elapsed_time: 569.45
OK all vehs arrived 
平均渋滞継続時間: 497.85秒
OK all vehicle abandonment were detected
254
146
===== Simlation Result Summary =====
avg_congestion_duration: 497.85 
arrival_time_by_vehID_dict:{'init_ShelterA_1_0': 219.0, 'init_ShelterA_1_1': 237.0, 'init_ShelterA_1_2': 242.0, 'init_ShelterA_1_3': 247.0, 'init_ShelterA_1_5': 288.0, 'init_ShelterA_1_6': 295.0, 'init_ShelterA_1_7': 300.0, 'init_ShelterA_1_9': 306.0, 'init_ShelterA_1_10': 312.0, 'init_ShelterA_1_11': 319.0, 'init_ShelterA_1_12': 326.0, 'init_ShelterA_1_14': 334.0, 'init_ShelterA_1_15': 343.0, 'init_ShelterA_1_16': 352.0, 'init_ShelterA_1_17': 361.0, 'init_ShelterA_1_18': 370.0, 'init_ShelterA_2_4': 377.0, 'init_ShelterA_1_19': 378.0, 'init_ShelterA_2_8': 386.0, 'init_ShelterA_1_20': 387.0, 'init_ShelterA_2_13': 391.0, 'init_ShelterA_1_21': 396.0, 'init_ShelterA_1_22': 405.0, 'init_ShelterA_1_23': 415.0, 'init_ShelterA_1_25': 424.0, 'init_ShelterA_1_26': 434.0, 'init_ShelterA_1_27': 444.0, 'init_ShelterA_1_28': 454.0, 'init_ShelterA_1_29': 463.0, 'init_ShelterA_2_24': 468.0, 'init_ShelterA_1_30': 473.0, 'init_ShelterA_1_31': 483.0, 'init_ShelterA_1_32': 492.0, 'init_ShelterA_1_34': 502.0, 'init_ShelterA_2_33': 506.0, 'init_ShelterA_1_35': 512.0, 'init_ShelterA_1_36': 521.0, 'init_ShelterA_1_37': 531.0, 'init_ShelterA_1_38': 541.0, 'init_ShelterA_1_39': 550.0, 'init_ShelterA_1_40': 560.0, 'init_ShelterA_1_41': 569.0, 'init_ShelterA_1_42': 579.0, 'init_ShelterA_1_43': 588.0, 'init_ShelterA_1_45': 598.0, 'init_ShelterA_1_46': 607.0, 'newveh_ShelterA_2_52_0': 611.0, 'init_ShelterA_1_47': 617.0, 'init_ShelterA_1_48': 626.0, 'init_ShelterA_1_49': 636.0, 'init_ShelterA_1_56': 641.0, 'init_ShelterA_1_50': 645.0, 'init_ShelterA_1_58': 647.0, 'init_ShelterA_1_59': 649.0, 'init_ShelterA_1_60': 652.0, 'init_ShelterA_1_51': 655.0, 'init_ShelterA_1_61': 655.0, 'init_ShelterA_1_62': 658.0, 'init_ShelterA_1_63': 661.0, 'init_ShelterA_1_53': 664.0, 'init_ShelterA_1_64': 664.0, 'init_ShelterA_1_65': 670.0, 'init_ShelterA_1_66': 672.0, 'init_ShelterA_1_54': 673.0, 'init_ShelterA_2_55': 675.0, 'init_ShelterA_1_67': 677.0, 'init_ShelterA_1_68': 679.0, 'init_ShelterA_1_69': 682.0, 'newveh_ShelterA_1_44_1': 686.0, 'init_ShelterA_1_70': 687.0, 'init_ShelterA_2_57': 688.0, 'init_ShelterA_2_72': 690.0, 'init_ShelterA_1_71': 693.0, 'init_ShelterA_2_73': 693.0, 'init_ShelterA_1_77': 701.0, 'init_ShelterA_1_83': 705.0, 'init_ShelterA_1_89': 710.0, 'init_ShelterA_1_74': 728.0, 'init_ShelterA_1_91': 731.0, 'init_ShelterA_1_75': 733.0, 'init_ShelterA_2_94': 733.0, 'init_ShelterA_1_76': 735.0, 'init_ShelterA_1_78': 739.0, 'init_ShelterA_1_79': 742.0, 'init_ShelterA_1_80': 745.0, 'init_ShelterA_1_81': 748.0, 'init_ShelterA_1_82': 751.0, 'init_ShelterA_1_84': 754.0, 'init_ShelterA_1_85': 759.0, 'init_ShelterA_1_86': 764.0, 'init_ShelterA_1_87': 766.0, 'init_ShelterA_1_88': 769.0, 'init_ShelterA_1_107': 823.0, 'init_ShelterA_1_111': 836.0, 'init_ShelterA_2_116': 841.0, 'init_ShelterA_2_118': 843.0, 'init_ShelterA_1_90': 845.0, 'init_ShelterA_1_92': 847.0, 'init_ShelterA_1_93': 849.0, 'init_ShelterA_1_95': 852.0, 'init_ShelterA_1_96': 855.0, 'init_ShelterA_1_97': 858.0, 'init_ShelterA_1_122': 860.0, 'init_ShelterA_1_98': 861.0, 'init_ShelterA_1_99': 864.0, 'init_ShelterA_1_100': 866.0, 'init_ShelterA_1_101': 877.0, 'init_ShelterA_1_102': 878.0, 'init_ShelterA_1_103': 881.0, 'init_ShelterA_1_104': 884.0, 'init_ShelterA_1_105': 886.0, 'init_ShelterA_2_126': 907.0, 'init_ShelterA_1_106': 915.0, 'init_ShelterA_1_127': 931.0, 'init_ShelterA_2_131': 934.0, 'init_ShelterA_2_132': 936.0, 'init_ShelterA_2_137': 939.0, 'init_ShelterA_1_108': 965.0, 'init_ShelterA_1_109': 967.0, 'init_ShelterA_1_110': 969.0, 'init_ShelterA_1_112': 972.0, 'init_ShelterA_1_113': 975.0, 'init_ShelterA_1_114': 978.0, 'init_ShelterA_1_115': 981.0, 'init_ShelterA_1_117': 984.0, 'init_ShelterA_1_119': 987.0, 'init_ShelterA_1_120': 990.0, 'init_ShelterA_1_121': 993.0, 'init_ShelterA_1_123': 997.0, 'init_ShelterA_1_124': 999.0, 'init_ShelterA_1_125': 1002.0, 'init_ShelterA_1_128': 1015.0, 'init_ShelterA_1_142': 1015.0, 'init_ShelterA_1_129': 1016.0, 'init_ShelterA_1_130': 1018.0, 'init_ShelterA_1_133': 1021.0, 'init_ShelterA_1_144': 1021.0, 'init_ShelterA_1_134': 1024.0, 'init_ShelterA_1_135': 1027.0, 'init_ShelterA_1_145': 1028.0, 'init_ShelterA_1_148': 1032.0, 'init_ShelterA_1_136': 1034.0, 'init_ShelterA_1_138': 1036.0, 'newveh_ShelterA_1_168_16': 1036.0, 'init_ShelterA_1_139': 1038.0, 'init_ShelterA_1_140': 1093.0, 'init_ShelterA_1_141': 1095.0, 'init_ShelterA_1_143': 1097.0, 'init_ShelterA_1_146': 1101.0, 'init_ShelterA_1_147': 1107.0, 'init_ShelterA_1_175': 1121.0, 'newveh_ShelterA_2_149_2': 1127.0, 'init_ShelterA_1_164': 1129.0, 'init_ShelterA_1_177': 1129.0, 'newveh_ShelterA_2_162_15': 1155.0, 'newveh_ShelterA_2_161_14': 1162.0, 'newveh_ShelterA_2_160_13': 1170.0, 'newveh_ShelterA_2_159_12': 1175.0, 'newveh_ShelterA_2_158_11': 1179.0, 'init_ShelterA_1_180': 1187.0, 'newveh_ShelterA_2_157_10': 1192.0, 'newveh_ShelterA_2_156_9': 1200.0, 'newveh_ShelterA_2_155_8': 1205.0, 'newveh_ShelterA_2_154_7': 1210.0, 'newveh_ShelterA_2_153_6': 1217.0, 'newveh_ShelterA_2_152_5': 1223.0, 'newveh_ShelterA_2_151_4': 1232.0, 'newveh_ShelterA_2_150_3': 1241.0, 'init_ShelterA_1_169': 1243.0, 'init_ShelterA_1_170': 1245.0, 'newveh_ShelterA_2_167_20': 1253.0, 'newveh_ShelterA_2_166_19': 1261.0, 'newveh_ShelterA_2_165_18': 1268.0, 'newveh_ShelterA_2_163_17': 1274.0, 'newveh_ShelterA_1_189_36': 1275.0, 'init_ShelterA_1_200': 1280.0, 'newveh_ShelterA_2_171_21': 1280.0, 'init_ShelterA_1_179': 1282.0, 'newveh_ShelterA_2_173_23': 1287.0, 'init_ShelterA_1_204': 1289.0, 'newveh_ShelterA_2_172_22': 1294.0, 'init_ShelterA_1_187': 1296.0, 'init_ShelterA_1_208': 1303.0, 'newveh_ShelterA_2_176_25': 1315.0, 'newveh_ShelterA_2_174_24': 1322.0, 'newveh_ShelterA_2_181_27': 1328.0, 'newveh_ShelterA_2_178_26': 1333.0, 'newveh_ShelterA_2_184_30': 1339.0, 'newveh_ShelterA_2_183_29': 1344.0, 'newveh_ShelterA_2_182_28': 1351.0, 'newveh_ShelterA_2_185_31': 1358.0, 'newveh_ShelterA_2_186_32': 1366.0, 'init_ShelterA_1_214': 1371.0, 'newveh_ShelterA_2_188_33': 1371.0, 'newveh_ShelterA_2_190_34': 1375.0, 'init_ShelterA_1_216': 1377.0, 'init_ShelterA_1_217': 1381.0, 'newveh_ShelterA_2_191_35': 1382.0, 'init_ShelterA_1_198': 1384.0, 'init_ShelterA_1_199': 1386.0, 'init_ShelterA_1_201': 1388.0, 'init_ShelterA_1_202': 1390.0, 'init_ShelterA_1_203': 1392.0, 'init_ShelterA_1_205': 1395.0, 'init_ShelterA_1_206': 1398.0, 'newveh_ShelterA_2_196_37': 1417.0, 'init_ShelterA_1_207': 1419.0, 'init_ShelterA_1_209': 1421.0, 'init_ShelterA_1_210': 1423.0, 'init_ShelterA_1_212': 1425.0, 'init_ShelterA_1_215': 1448.0, 'newveh_ShelterA_1_211_44': 1456.0, 'newveh_ShelterA_1_223_48': 1463.0, 'newveh_ShelterA_2_193_39': 1471.0, 'init_ShelterA_1_251': 1472.0, 'newveh_ShelterA_2_192_38': 1477.0, 'newveh_ShelterA_1_234_50': 1478.0, 'newveh_ShelterA_1_232_49': 1482.0, 'newveh_ShelterA_2_194_40': 1483.0, 'newveh_ShelterA_2_197_42': 1490.0, 'newveh_ShelterA_2_195_41': 1505.0, 'init_ShelterA_1_221': 1507.0, 'init_ShelterA_1_222': 1510.0, 'init_ShelterA_1_224': 1511.0, 'init_ShelterA_1_225': 1513.0, 'init_ShelterA_1_226': 1516.0, 'newveh_ShelterA_2_213_43': 1522.0, 'newveh_ShelterA_2_218_45': 1527.0, 'init_ShelterA_1_263': 1550.0, 'newveh_ShelterA_2_220_47': 1555.0, 'newveh_ShelterA_2_219_46': 1559.0, 'init_ShelterA_1_264': 1563.0, 'init_ShelterA_1_247': 1565.0, 'init_ShelterA_1_248': 1567.0, 'init_ShelterA_1_249': 1569.0, 'init_ShelterA_1_250': 1571.0, 'init_ShelterA_1_265': 1575.0, 'newveh_ShelterA_2_253_82': 1592.0, 'init_ShelterA_1_252': 1602.0, 'init_ShelterA_1_254': 1604.0, 'init_ShelterA_1_255': 1606.0, 'newveh_ShelterA_2_235_52': 1624.0, 'newveh_ShelterA_2_233_51': 1631.0, 'newveh_ShelterA_2_236_53': 1637.0, 'newveh_ShelterA_2_262_84': 1642.0, 'newveh_ShelterA_2_272_98': 1648.0, 'init_ShelterA_1_276': 1649.0, 'newveh_ShelterA_2_271_97': 1653.0, 'init_ShelterA_1_277': 1655.0, 'newveh_ShelterA_1_260_69': 1659.0, 'newveh_ShelterA_2_267_96': 1660.0, 'newveh_ShelterA_1_256_74': 1664.0, 'newveh_ShelterA_2_237_54': 1666.0, 'newveh_ShelterA_2_238_55': 1674.0, 'newveh_ShelterA_2_241_59': 1682.0, 'newveh_ShelterA_2_240_58': 1690.0, 'newveh_ShelterA_2_228_56': 1699.0, 'newveh_ShelterA_2_229_57': 1708.0, 'newveh_ShelterA_2_243_61': 1718.0, 'newveh_ShelterA_2_242_60': 1727.0, 'newveh_ShelterA_2_244_62': 1737.0, 'newveh_ShelterA_2_245_63': 1747.0, 'newveh_ShelterA_2_227_64': 1756.0, 'newveh_ShelterA_2_246_68': 1766.0, 'newveh_ShelterA_2_239_67': 1776.0, 'newveh_ShelterA_2_266_95': 1785.0, 'newveh_ShelterA_2_289_116': 1795.0, 'newveh_ShelterA_2_281_115': 1805.0, 'init_ShelterA_1_322': 1814.0, 'newveh_ShelterA_2_231_66': 1814.0, 'newveh_ShelterA_1_273_78': 1821.0, 'init_ShelterA_1_325': 1829.0, 'newveh_ShelterA_2_230_65': 1835.0, 'init_ShelterA_1_330': 1836.0, 'init_ShelterA_1_274': 1837.0, 'init_ShelterA_1_275': 1839.0, 'init_ShelterA_1_278': 1841.0, 'init_ShelterA_1_331': 1842.0, 'init_ShelterA_1_279': 1843.0, 'init_ShelterA_1_280': 1845.0, 'init_ShelterA_1_282': 1848.0, 'init_ShelterA_1_332': 1848.0, 'init_ShelterA_1_285': 1850.0, 'init_ShelterA_1_286': 1853.0, 'init_ShelterA_1_342': 1853.0, 'init_ShelterA_1_287': 1855.0, 'init_ShelterA_1_345': 1857.0, 'init_ShelterA_1_288': 1858.0, 'init_ShelterA_1_291': 1861.0, 'newveh_ShelterA_2_257_70': 1869.0, 'newveh_ShelterA_2_261_73': 1875.0, 'newveh_ShelterA_2_258_71': 1884.0, 'newveh_ShelterA_2_259_72': 1906.0, 'init_ShelterA_1_292': 1908.0, 'init_ShelterA_1_350': 1910.0, 'init_ShelterA_1_293': 1911.0, 'init_ShelterA_1_294': 1913.0, 'init_ShelterA_1_296': 1915.0, 'init_ShelterA_1_297': 1917.0, 'init_ShelterA_1_351': 1917.0, 'init_ShelterA_1_298': 1919.0, 'init_ShelterA_1_299': 1921.0, 'init_ShelterA_1_310': 1924.0, 'init_ShelterA_1_352': 1924.0, 'init_ShelterA_1_312': 1927.0, 'init_ShelterA_1_314': 1929.0, 'newveh_ShelterA_1_295_83': 1929.0, 'init_ShelterA_1_315': 1932.0, 'init_ShelterA_2_354': 1932.0, 'init_ShelterA_1_316': 1935.0, 'newveh_ShelterA_1_309_86': 1937.0, 'init_ShelterA_1_317': 1938.0, 'newveh_ShelterA_2_307_124': 1946.0, 'newveh_ShelterA_2_306_123': 1953.0, 'newveh_ShelterA_2_303_122': 1962.0, 'newveh_ShelterA_2_300_121': 1971.0, 'newveh_ShelterA_2_318_125': 1980.0, 'init_ShelterA_1_321': 1982.0, 'newveh_ShelterA_2_268_75': 1992.0, 'init_ShelterA_1_370': 1997.0, 'newveh_ShelterA_2_270_77': 2001.0, 'newveh_ShelterA_2_269_76': 2011.0, 'newveh_ShelterA_2_283_79': 2020.0, 'init_ShelterA_1_346': 2023.0, 'newveh_ShelterA_1_323_99': 2027.0, 'init_ShelterA_1_382': 2033.0, 'newveh_ShelterA_2_284_80': 2033.0, 'init_ShelterA_1_383': 2037.0, 'newveh_ShelterA_2_290_81': 2043.0, 'init_ShelterA_1_348': 2045.0, 'newveh_ShelterA_2_343_132': 2055.0, 'newveh_ShelterA_2_347_133': 2064.0, 'newveh_ShelterA_2_363_141': 2074.0, 'init_ShelterA_2_386': 2081.0, 'newveh_ShelterA_2_362_140': 2096.0, 'init_ShelterA_1_349': 2099.0, 'init_ShelterA_1_353': 2101.0, 'init_ShelterA_1_357': 2103.0, 'init_ShelterA_1_391': 2104.0, 'init_ShelterA_1_359': 2105.0, 'init_ShelterA_1_361': 2107.0, 'init_ShelterA_1_364': 2109.0, 'init_ShelterA_1_394': 2109.0, 'init_ShelterA_1_365': 2111.0, 'init_ShelterA_1_366': 2113.0, 'init_ShelterA_1_367': 2116.0, 'newveh_ShelterA_2_302_85': 2125.0, 'newveh_ShelterA_2_313_89': 2132.0, 'newveh_ShelterA_2_381_143': 2141.0, 'init_ShelterA_1_368': 2144.0, 'init_ShelterA_1_369': 2146.0, 'newveh_ShelterA_2_301_87': 2155.0, 'newveh_ShelterA_2_304_88': 2163.0, 'newveh_ShelterA_2_311_92': 2172.0, 'newveh_ShelterA_1_344_114': 2177.0, 'newveh_ShelterA_1_360_119': 2181.0, 'newveh_ShelterA_2_308_91': 2181.0, 'newveh_ShelterA_1_358_118': 2190.0, 'newveh_ShelterA_2_305_90': 2191.0, 'newveh_ShelterA_1_355_117': 2195.0, 'newveh_ShelterA_2_319_93': 2200.0, 'newveh_ShelterA_2_320_94': 2214.0, 'init_ShelterA_1_377': 2217.0, 'init_ShelterA_1_378': 2219.0, 'init_ShelterA_1_379': 2221.0, 'newveh_ShelterA_2_380_142': 2230.0, 'newveh_ShelterA_2_397_144': 2251.0, 'init_ShelterA_1_384': 2254.0, 'init_ShelterA_1_385': 2256.0, 'init_ShelterA_1_387': 2258.0, 'init_ShelterA_1_389': 2260.0, 'init_ShelterA_1_390': 2262.0, 'init_ShelterA_1_393': 2264.0, 'newveh_ShelterA_2_335_104': 2272.0, 'newveh_ShelterA_2_334_103': 2277.0, 'newveh_ShelterA_2_333_102': 2285.0, 'newveh_ShelterA_2_328_100': 2294.0, 'newveh_ShelterA_2_329_101': 2304.0, 'newveh_ShelterA_2_336_105': 2313.0, 'newveh_ShelterA_2_337_106': 2323.0, 'newveh_ShelterA_2_324_107': 2333.0, 'newveh_ShelterA_2_341_113': 2343.0, 'newveh_ShelterA_2_340_112': 2352.0, 'newveh_ShelterA_2_339_111': 2362.0, 'newveh_ShelterA_2_338_110': 2372.0, 'newveh_ShelterA_2_327_109': 2381.0, 'newveh_ShelterA_2_326_108': 2391.0, 'newveh_ShelterA_2_373_126': 2401.0, 'newveh_ShelterA_2_356_120': 2410.0, 'newveh_ShelterA_2_371_127': 2420.0, 'newveh_ShelterA_2_374_129': 2430.0, 'newveh_ShelterA_2_372_128': 2440.0, 'newveh_ShelterA_2_375_130': 2449.0, 'newveh_ShelterA_2_376_131': 2459.0, 'newveh_ShelterA_2_388_135': 2469.0, 'newveh_ShelterA_2_395_134': 2479.0, 'newveh_ShelterA_2_399_139': 2488.0, 'newveh_ShelterA_2_398_138': 2494.0, 'newveh_ShelterA_2_396_137': 2499.0, 'newveh_ShelterA_2_392_136': 2503.0}
vehicle_abandant_time_by_pedestrianID_dict:{}
walking_distance_by_pedestrianID_dict:{}
route_change_time_by_vehID_dict:{'init_ShelterA_1_58': 430.0, 'init_ShelterA_1_59': 430.0, 'init_ShelterA_1_60': 430.0, 'init_ShelterA_1_61': 430.0, 'init_ShelterA_1_62': 430.0, 'init_ShelterA_1_63': 430.0, 'init_ShelterA_1_64': 430.0, 'init_ShelterA_1_65': 430.0, 'init_ShelterA_1_67': 430.0, 'init_ShelterA_1_68': 430.0, 'init_ShelterA_1_69': 430.0, 'init_ShelterA_1_70': 430.0, 'init_ShelterA_2_55': 430.0, 'init_ShelterA_1_52': 440.0, 'init_ShelterA_1_66': 440.0, 'init_ShelterA_1_56': 450.0, 'init_ShelterA_2_44': 450.0, 'init_ShelterA_2_57': 450.0, 'init_ShelterA_1_71': 490.0, 'init_ShelterA_2_73': 490.0, 'init_ShelterA_2_72': 500.0, 'init_ShelterA_1_75': 510.0, 'init_ShelterA_1_76': 510.0, 'init_ShelterA_1_78': 510.0, 'init_ShelterA_1_79': 510.0, 'init_ShelterA_1_80': 510.0, 'init_ShelterA_1_81': 510.0, 'init_ShelterA_1_82': 510.0, 'init_ShelterA_1_74': 520.0, 'init_ShelterA_1_84': 520.0, 'init_ShelterA_1_85': 520.0, 'init_ShelterA_1_86': 520.0, 'init_ShelterA_1_87': 520.0, 'init_ShelterA_1_88': 520.0, 'init_ShelterA_2_94': 580.0, 'init_ShelterA_1_90': 590.0, 'init_ShelterA_1_100': 600.0, 'init_ShelterA_1_101': 600.0, 'init_ShelterA_1_93': 600.0, 'init_ShelterA_1_97': 600.0, 'init_ShelterA_1_98': 600.0, 'init_ShelterA_1_99': 600.0, 'init_ShelterA_1_102': 610.0, 'init_ShelterA_1_103': 610.0, 'init_ShelterA_1_104': 610.0, 'init_ShelterA_1_105': 610.0, 'init_ShelterA_1_92': 610.0, 'init_ShelterA_1_95': 610.0, 'init_ShelterA_1_149': 640.0, 'init_ShelterA_1_150': 640.0, 'init_ShelterA_1_151': 640.0, 'init_ShelterA_1_152': 640.0, 'init_ShelterA_1_153': 640.0, 'init_ShelterA_1_154': 640.0, 'init_ShelterA_1_155': 640.0, 'init_ShelterA_1_156': 640.0, 'init_ShelterA_1_157': 640.0, 'init_ShelterA_1_158': 640.0, 'init_ShelterA_1_159': 640.0, 'init_ShelterA_1_160': 640.0, 'init_ShelterA_1_161': 640.0, 'init_ShelterA_1_162': 640.0, 'init_ShelterA_1_96': 640.0, 'init_ShelterA_2_116': 640.0, 'init_ShelterA_2_168': 640.0, 'init_ShelterA_1_115': 650.0, 'init_ShelterA_1_163': 650.0, 'init_ShelterA_1_165': 650.0, 'init_ShelterA_1_166': 650.0, 'init_ShelterA_1_167': 650.0, 'init_ShelterA_1_171': 680.0, 'init_ShelterA_1_170': 690.0, 'init_ShelterA_2_118': 690.0, 'init_ShelterA_1_109': 700.0, 'init_ShelterA_1_110': 700.0, 'init_ShelterA_1_112': 700.0, 'init_ShelterA_1_113': 700.0, 'init_ShelterA_1_119': 700.0, 'init_ShelterA_1_121': 700.0, 'init_ShelterA_1_123': 700.0, 'init_ShelterA_1_172': 700.0, 'init_ShelterA_1_173': 700.0, 'init_ShelterA_2_132': 700.0, 'init_ShelterA_1_117': 710.0, 'init_ShelterA_1_120': 710.0, 'init_ShelterA_1_124': 710.0, 'init_ShelterA_1_174': 710.0, 'init_ShelterA_1_176': 710.0, 'init_ShelterA_2_131': 710.0, 'init_ShelterA_1_129': 720.0, 'init_ShelterA_1_178': 720.0, 'init_ShelterA_1_181': 720.0, 'init_ShelterA_1_182': 720.0, 'init_ShelterA_1_183': 720.0, 'init_ShelterA_1_184': 720.0, 'init_ShelterA_1_185': 720.0, 'init_ShelterA_1_106': 730.0, 'init_ShelterA_1_108': 730.0, 'init_ShelterA_1_114': 730.0, 'init_ShelterA_1_186': 730.0, 'init_ShelterA_1_188': 740.0, 'init_ShelterA_1_190': 740.0, 'init_ShelterA_1_191': 740.0, 'init_ShelterA_2_126': 740.0, 'init_ShelterA_2_189': 740.0, 'init_ShelterA_1_130': 760.0, 'init_ShelterA_1_125': 770.0, 'init_ShelterA_1_128': 770.0, 'init_ShelterA_1_134': 770.0, 'init_ShelterA_1_135': 770.0, 'init_ShelterA_1_136': 770.0, 'init_ShelterA_1_138': 770.0, 'init_ShelterA_2_137': 770.0, 'init_ShelterA_1_133': 780.0, 'init_ShelterA_1_140': 780.0, 'init_ShelterA_1_141': 780.0, 'init_ShelterA_1_139': 790.0, 'init_ShelterA_1_196': 790.0, 'init_ShelterA_1_192': 810.0, 'init_ShelterA_1_193': 810.0, 'init_ShelterA_1_194': 810.0, 'init_ShelterA_1_195': 810.0, 'init_ShelterA_1_197': 810.0, 'init_ShelterA_1_143': 820.0, 'init_ShelterA_1_146': 840.0, 'init_ShelterA_1_213': 890.0, 'init_ShelterA_2_211': 890.0, 'init_ShelterA_1_147': 910.0, 'init_ShelterA_1_164': 910.0, 'init_ShelterA_1_218': 910.0, 'init_ShelterA_1_219': 910.0, 'init_ShelterA_1_220': 910.0, 'init_ShelterA_2_223': 920.0, 'init_ShelterA_1_169': 930.0, 'init_ShelterA_2_232': 950.0, 'init_ShelterA_2_234': 950.0, 'init_ShelterA_1_233': 960.0, 'init_ShelterA_1_235': 960.0, 'init_ShelterA_1_236': 960.0, 'init_ShelterA_1_237': 960.0, 'init_ShelterA_1_238': 960.0, 'init_ShelterA_1_228': 970.0, 'init_ShelterA_1_229': 970.0, 'init_ShelterA_1_240': 970.0, 'init_ShelterA_1_241': 970.0, 'init_ShelterA_1_242': 980.0, 'init_ShelterA_1_243': 980.0, 'init_ShelterA_1_244': 980.0, 'init_ShelterA_1_245': 980.0, 'init_ShelterA_1_227': 990.0, 'init_ShelterA_1_230': 990.0, 'init_ShelterA_1_231': 990.0, 'init_ShelterA_1_239': 990.0, 'init_ShelterA_1_246': 990.0, 'init_ShelterA_1_179': 1020.0, 'init_ShelterA_1_187': 1020.0, 'init_ShelterA_2_260': 1040.0, 'init_ShelterA_1_257': 1060.0, 'init_ShelterA_1_258': 1060.0, 'init_ShelterA_1_259': 1060.0, 'init_ShelterA_1_261': 1060.0, 'init_ShelterA_2_256': 1060.0, 'init_ShelterA_1_202': 1110.0, 'init_ShelterA_1_205': 1110.0, 'init_ShelterA_1_206': 1110.0, 'init_ShelterA_1_210': 1110.0, 'init_ShelterA_1_199': 1120.0, 'init_ShelterA_1_201': 1120.0, 'init_ShelterA_1_203': 1120.0, 'init_ShelterA_1_209': 1120.0, 'init_ShelterA_1_212': 1120.0, 'init_ShelterA_1_198': 1130.0, 'init_ShelterA_1_215': 1130.0, 'init_ShelterA_1_222': 1160.0, 'init_ShelterA_1_268': 1160.0, 'init_ShelterA_1_269': 1160.0, 'init_ShelterA_1_270': 1160.0, 'init_ShelterA_2_273': 1170.0, 'init_ShelterA_1_207': 1180.0, 'init_ShelterA_1_224': 1180.0, 'init_ShelterA_1_225': 1180.0, 'init_ShelterA_1_226': 1180.0, 'init_ShelterA_1_247': 1180.0, 'init_ShelterA_1_250': 1180.0, 'init_ShelterA_1_221': 1190.0, 'init_ShelterA_1_248': 1190.0, 'init_ShelterA_1_283': 1240.0, 'init_ShelterA_1_284': 1240.0, 'init_ShelterA_1_290': 1240.0, 'init_ShelterA_1_253': 1250.0, 'init_ShelterA_1_254': 1260.0, 'init_ShelterA_2_295': 1260.0, 'init_ShelterA_1_262': 1270.0, 'init_ShelterA_1_249': 1300.0, 'init_ShelterA_1_252': 1300.0, 'init_ShelterA_1_302': 1300.0, 'init_ShelterA_2_309': 1300.0, 'init_ShelterA_1_301': 1310.0, 'init_ShelterA_1_304': 1310.0, 'init_ShelterA_1_313': 1310.0, 'init_ShelterA_1_305': 1320.0, 'init_ShelterA_1_308': 1320.0, 'init_ShelterA_1_311': 1320.0, 'init_ShelterA_1_319': 1330.0, 'init_ShelterA_1_320': 1330.0, 'init_ShelterA_1_266': 1350.0, 'init_ShelterA_1_267': 1350.0, 'init_ShelterA_1_271': 1350.0, 'init_ShelterA_1_272': 1350.0, 'init_ShelterA_1_255': 1360.0, 'init_ShelterA_1_274': 1360.0, 'init_ShelterA_1_275': 1360.0, 'init_ShelterA_2_323': 1360.0, 'init_ShelterA_1_278': 1380.0, 'init_ShelterA_1_287': 1390.0, 'init_ShelterA_1_288': 1390.0, 'init_ShelterA_1_328': 1400.0, 'init_ShelterA_1_329': 1400.0, 'init_ShelterA_1_333': 1400.0, 'init_ShelterA_1_334': 1400.0, 'init_ShelterA_1_335': 1400.0, 'init_ShelterA_1_336': 1400.0, 'init_ShelterA_1_337': 1400.0, 'init_ShelterA_1_324': 1410.0, 'init_ShelterA_1_326': 1410.0, 'init_ShelterA_1_327': 1410.0, 'init_ShelterA_1_338': 1410.0, 'init_ShelterA_1_339': 1410.0, 'init_ShelterA_1_340': 1410.0, 'init_ShelterA_1_341': 1410.0, 'init_ShelterA_1_279': 1420.0, 'init_ShelterA_2_344': 1420.0, 'init_ShelterA_1_282': 1430.0, 'init_ShelterA_1_285': 1430.0, 'init_ShelterA_1_280': 1440.0, 'init_ShelterA_1_281': 1440.0, 'init_ShelterA_1_289': 1440.0, 'init_ShelterA_2_354': 1460.0, 'init_ShelterA_1_353': 1470.0, 'init_ShelterA_1_286': 1480.0, 'init_ShelterA_1_291': 1480.0, 'init_ShelterA_1_312': 1480.0, 'init_ShelterA_2_355': 1480.0, 'init_ShelterA_2_358': 1480.0, 'init_ShelterA_2_360': 1480.0, 'init_ShelterA_1_356': 1490.0, 'init_ShelterA_1_292': 1520.0, 'init_ShelterA_1_293': 1520.0, 'init_ShelterA_1_294': 1520.0, 'init_ShelterA_1_296': 1520.0, 'init_ShelterA_1_297': 1520.0, 'init_ShelterA_1_300': 1520.0, 'init_ShelterA_1_303': 1520.0, 'init_ShelterA_1_306': 1520.0, 'init_ShelterA_1_307': 1520.0, 'init_ShelterA_1_298': 1530.0, 'init_ShelterA_1_299': 1530.0, 'init_ShelterA_1_310': 1530.0, 'init_ShelterA_1_314': 1530.0, 'init_ShelterA_1_315': 1530.0, 'init_ShelterA_1_316': 1530.0, 'init_ShelterA_1_317': 1530.0, 'init_ShelterA_1_318': 1530.0, 'init_ShelterA_1_373': 1550.0, 'init_ShelterA_1_371': 1560.0, 'init_ShelterA_1_372': 1560.0, 'init_ShelterA_1_374': 1560.0, 'init_ShelterA_1_375': 1560.0, 'init_ShelterA_1_376': 1560.0, 'init_ShelterA_1_321': 1590.0, 'init_ShelterA_1_343': 1610.0, 'init_ShelterA_1_347': 1620.0, 'init_ShelterA_1_357': 1650.0, 'init_ShelterA_1_359': 1650.0, 'init_ShelterA_1_395': 1650.0, 'init_ShelterA_1_388': 1660.0, 'init_ShelterA_1_392': 1660.0, 'init_ShelterA_1_396': 1660.0, 'init_ShelterA_1_398': 1660.0, 'init_ShelterA_1_399': 1660.0, 'init_ShelterA_1_361': 1700.0, 'init_ShelterA_1_364': 1700.0, 'init_ShelterA_1_365': 1700.0, 'init_ShelterA_1_366': 1700.0, 'init_ShelterA_1_367': 1700.0, 'init_ShelterA_1_362': 1710.0, 'init_ShelterA_1_363': 1710.0, 'init_ShelterA_1_346': 1720.0, 'init_ShelterA_1_348': 1730.0, 'init_ShelterA_1_349': 1740.0, 'init_ShelterA_1_379': 1750.0, 'init_ShelterA_1_368': 1760.0, 'init_ShelterA_1_377': 1780.0, 'init_ShelterA_1_378': 1780.0, 'init_ShelterA_1_380': 1790.0, 'init_ShelterA_1_381': 1790.0, 'init_ShelterA_1_389': 1820.0, 'init_ShelterA_1_390': 1820.0, 'init_ShelterA_2_386': 1820.0, 'init_ShelterA_1_385': 1860.0, 'init_ShelterA_1_393': 1860.0, 'init_ShelterA_1_387': 1870.0, 'init_ShelterA_1_397': 1870.0, 'init_ShelterA_1_369': 1900.0, 'init_ShelterA_1_384': 1910.0}
pedestrian_count:0
route_changed_vehicle_count:305
route_change_event_count:305
rate_vehicle_abandonment:0.00%
wrong_way_driving_count:0
vehicle_abandonment_count:0
normalcy_bias_route_change_count:208
majority_bias_route_change_count:97
lane_changed_vehicle_count:0
info_obtained_lanechange_count:0
elapsed_time_lanechange_count:0
majority_bias_lanechange_count:0

=== Job Result ===
end=2026-07-13T02:02:01+0900
elapsed_seconds=379
exit_code=0
status=SUCCESS
