=== Job Info ===
job_name=va_s10_e1.0_v1.0_r7
host=schubert
pid=130244
scenario=10
early_rate=1.0
v2v_rate=1.0
run_id=7
config=/home/katagi/vehicle-assistant-system/scenarios/JIP/configs/config_scenario_10.toml
output_dir=/home/katagi/vehicle-assistant-system/schubert_logs/va_s10_e1.0_v1.0_r7
start=2026-07-13T02:45:17+0900
python_version=Python 3.12.3
sumo_version=Eclipse SUMO sumo Version v1_23_1+0435-630512a

=== Command ===
cd /home/katagi/vehicle-assistant-system/schubert_logs/va_s10_e1.0_v1.0_r7
PYTHONPATH=/home/katagi/vehicle-assistant-system:/home/katagi/tmp/sumo/tools:/home/katagi/local/sumo/tools:/home/katagi/tmp/sumo/tools:/home/katagi/local/sumo/tools:/home/katagi/tmp/sumo/tools:/home/katagi/local/sumo/tools: python3 -W ignore::UserWarning -m scenarios.JIP.1-1-4.simulation.runner_simulator --nogui /home/katagi/vehicle-assistant-system/scenarios/JIP/configs/config_scenario_10.toml 1.0 1.0
simulation_pid=130264
Step #0.00 (0ms ?*RT. ?UPS, TraCI: 338ms, vehicles TOT 1 ACT 1 BUF 0)                     Step #100.00 (0ms ?*RT. ?UPS, TraCI: 18ms, vehicles TOT 26 ACT 26 BUF 0)                  Step #200.00 (0ms ?*RT. ?UPS, TraCI: 39ms, vehicles TOT 51 ACT 51 BUF 0)                  Step #300.00 (1ms ~= 1000.00*RT, ~77000.00UPS, TraCI: 53ms, vehicles TOT 77 ACT 77 BUF 0) Step #400.00 (0ms ?*RT. ?UPS, TraCI: 1664ms, vehicles TOT 104 ACT 104 BUF 0)              Step #500.00 (1ms ~= 1000.00*RT, ~131000.00UPS, TraCI: 1317ms, vehicles TOT 131 ACT 131 BUStep #600.00 (0ms ?*RT. ?UPS, TraCI: 1315ms, vehicles TOT 158 ACT 158 BUF 0)              Step #700.00 (0ms ?*RT. ?UPS, TraCI: 1204ms, vehicles TOT 186 ACT 186 BUF 0)              Step #800.00 (1ms ~= 1000.00*RT, ~210000.00UPS, TraCI: 470ms, vehicles TOT 211 ACT 210 BUFStep #900.00 (1ms ~= 1000.00*RT, ~215000.00UPS, TraCI: 1459ms, vehicles TOT 242 ACT 215 BUStep #1000.00 (1ms ~= 1000.00*RT, ~230000.00UPS, TraCI: 1195ms, vehicles TOT 259 ACT 230 BStep #1100.00 (1ms ~= 1000.00*RT, ~261000.00UPS, TraCI: 793ms, vehicles TOT 292 ACT 261 BUStep #1200.00 (1ms ~= 1000.00*RT, ~275000.00UPS, TraCI: 1840ms, vehicles TOT 309 ACT 275 BStep #1300.00 (1ms ~= 1000.00*RT, ~302000.00UPS, TraCI: 3298ms, vehicles TOT 340 ACT 302 BStep #1400.00 (1ms ~= 1000.00*RT, ~321000.00UPS, TraCI: 2951ms, vehicles TOT 369 ACT 321 BStep #1500.00 (1ms ~= 1000.00*RT, ~337000.00UPS, TraCI: 2567ms, vehicles TOT 404 ACT 337 BStep #1600.00 (1ms ~= 1000.00*RT, ~358000.00UPS, TraCI: 2270ms, vehicles TOT 430 ACT 358 BStep #1700.00 (1ms ~= 1000.00*RT, ~385000.00UPS, TraCI: 1056ms, vehicles TOT 460 ACT 385 BStep #1800.00 (1ms ~= 1000.00*RT, ~400000.00UPS, TraCI: 1617ms, vehicles TOT 475 ACT 400 BStep #1900.00 (1ms ~= 1000.00*RT, ~400000.00UPS, TraCI: 2172ms, vehicles TOT 475 ACT 400 BStep #2000.00 (1ms ~= 1000.00*RT, ~400000.00UPS, TraCI: 1747ms, vehicles TOT 475 ACT 400 BStep #2100.00 (1ms ~= 1000.00*RT, ~400000.00UPS, TraCI: 287ms, vehicles TOT 475 ACT 400 BUStep #2200.00 (0ms ?*RT. ?UPS, TraCI: 97ms, vehicles TOT 475 ACT 400 BUF 0)               Step #2300.00 (1ms ~= 1000.00*RT, ~400000.00UPS, TraCI: 86ms, vehicles TOT 475 ACT 400 BUFStep #2400.00 (0ms ?*RT. ?UPS, TraCI: 86ms, vehicles TOT 475 ACT 400 BUF 0)               Step #2500.00 (1ms ~= 1000.00*RT, ~400000.00UPS, TraCI: 78ms, vehicles TOT 475 ACT 400 BUFStep #2600.00 (0ms ?*RT. ?UPS, TraCI: 79ms, vehicles TOT 475 ACT 400 BUF 0)               Step #2700.00 (0ms ?*RT. ?UPS, TraCI: 78ms, vehicles TOT 475 ACT 400 BUF 0)               Step #2800.00 (0ms ?*RT. ?UPS, TraCI: 80ms, vehicles TOT 475 ACT 400 BUF 0)               Step #2900.00 (0ms ?*RT. ?UPS, TraCI: 78ms, vehicles TOT 475 ACT 400 BUF 0)               Step #3000.00 (0ms ?*RT. ?UPS, TraCI: 78ms, vehicles TOT 475 ACT 400 BUF 0)               
 Retrying in 1 seconds
出現数: {'A1': 355, 'A2': 45}
割合:
  Total: 400
  A1: 355 (88.75%)
  A2: 45 (11.25%)
  B1: 0 (0.00%)
  B2: 0 (0.00%)
mean elapsed_time: 514.5675
OK all vehs arrived 
平均渋滞継続時間: 425.21秒
OK all vehicle abandonment were detected
312
88
===== Simlation Result Summary =====
avg_congestion_duration: 425.21 
arrival_time_by_vehID_dict:{'init_ShelterA_1_0': 207.0, 'init_ShelterA_1_1': 217.0, 'init_ShelterA_1_2': 224.0, 'init_ShelterA_1_3': 230.0, 'init_ShelterA_1_4': 237.0, 'init_ShelterA_1_5': 243.0, 'init_ShelterA_1_6': 248.0, 'init_ShelterA_1_8': 252.0, 'init_ShelterA_1_9': 284.0, 'init_ShelterA_1_10': 290.0, 'init_ShelterA_1_14': 295.0, 'init_ShelterA_1_15': 301.0, 'init_ShelterA_1_16': 307.0, 'init_ShelterA_1_17': 312.0, 'init_ShelterA_1_18': 317.0, 'init_ShelterA_2_7': 318.0, 'init_ShelterA_1_19': 323.0, 'init_ShelterA_1_20': 329.0, 'init_ShelterA_1_21': 336.0, 'init_ShelterA_1_22': 343.0, 'init_ShelterA_1_23': 350.0, 'init_ShelterA_1_24': 354.0, 'init_ShelterA_1_25': 359.0, 'init_ShelterA_2_11': 369.0, 'init_ShelterA_1_26': 371.0, 'init_ShelterA_1_27': 390.0, 'init_ShelterA_1_29': 397.0, 'init_ShelterA_1_30': 402.0, 'init_ShelterA_1_31': 407.0, 'init_ShelterA_1_32': 413.0, 'init_ShelterA_1_33': 419.0, 'init_ShelterA_1_35': 426.0, 'init_ShelterA_1_36': 433.0, 'init_ShelterA_2_12': 433.0, 'init_ShelterA_2_13': 438.0, 'init_ShelterA_1_37': 441.0, 'init_ShelterA_1_38': 449.0, 'init_ShelterA_1_39': 456.0, 'init_ShelterA_1_40': 465.0, 'init_ShelterA_1_41': 473.0, 'init_ShelterA_1_42': 482.0, 'init_ShelterA_2_28': 486.0, 'init_ShelterA_1_43': 491.0, 'init_ShelterA_2_34': 491.0, 'init_ShelterA_1_44': 501.0, 'init_ShelterA_1_45': 510.0, 'init_ShelterA_1_46': 520.0, 'init_ShelterA_1_48': 530.0, 'init_ShelterA_1_49': 540.0, 'init_ShelterA_1_50': 549.0, 'init_ShelterA_1_51': 559.0, 'init_ShelterA_1_47': 568.0, 'init_ShelterA_1_52': 569.0, 'init_ShelterA_1_53': 578.0, 'init_ShelterA_2_54': 581.0, 'init_ShelterA_1_55': 591.0, 'init_ShelterA_1_56': 600.0, 'init_ShelterA_1_57': 610.0, 'init_ShelterA_1_58': 620.0, 'init_ShelterA_1_59': 631.0, 'init_ShelterA_2_66': 633.0, 'init_ShelterA_2_68': 636.0, 'init_ShelterA_2_71': 638.0, 'init_ShelterA_1_72': 649.0, 'init_ShelterA_2_73': 651.0, 'init_ShelterA_2_74': 653.0, 'init_ShelterA_1_60': 655.0, 'init_ShelterA_1_61': 658.0, 'init_ShelterA_1_62': 661.0, 'init_ShelterA_1_75': 663.0, 'init_ShelterA_1_63': 670.0, 'init_ShelterA_1_64': 672.0, 'init_ShelterA_1_76': 673.0, 'init_ShelterA_1_65': 675.0, 'init_ShelterA_1_67': 678.0, 'init_ShelterA_1_69': 681.0, 'init_ShelterA_1_78': 682.0, 'init_ShelterA_1_70': 684.0, 'init_ShelterA_1_79': 692.0, 'init_ShelterA_1_80': 701.0, 'init_ShelterA_1_84': 711.0, 'init_ShelterA_1_77': 721.0, 'init_ShelterA_1_86': 721.0, 'init_ShelterA_2_89': 723.0, 'init_ShelterA_1_81': 725.0, 'init_ShelterA_1_90': 731.0, 'init_ShelterA_1_91': 736.0, 'init_ShelterA_1_92': 741.0, 'init_ShelterA_1_82': 746.0, 'init_ShelterA_1_100': 748.0, 'init_ShelterA_1_83': 748.0, 'init_ShelterA_2_101': 750.0, 'init_ShelterA_1_85': 751.0, 'init_ShelterA_2_102': 752.0, 'init_ShelterA_1_87': 754.0, 'init_ShelterA_1_88': 757.0, 'init_ShelterA_1_103': 761.0, 'init_ShelterA_1_93': 762.0, 'init_ShelterA_1_104': 767.0, 'init_ShelterA_1_106': 774.0, 'init_ShelterA_1_107': 778.0, 'init_ShelterA_1_109': 783.0, 'init_ShelterA_2_111': 808.0, 'init_ShelterA_2_114': 816.0, 'init_ShelterA_1_94': 818.0, 'init_ShelterA_1_95': 829.0, 'init_ShelterA_1_96': 831.0, 'init_ShelterA_1_97': 834.0, 'init_ShelterA_1_98': 836.0, 'init_ShelterA_1_99': 839.0, 'init_ShelterA_1_118': 841.0, 'init_ShelterA_1_122': 850.0, 'init_ShelterA_1_105': 852.0, 'init_ShelterA_1_108': 854.0, 'newveh_ShelterA_2_110_0': 877.0, 'init_ShelterA_1_112': 906.0, 'init_ShelterA_1_129': 911.0, 'init_ShelterA_1_113': 933.0, 'init_ShelterA_1_115': 935.0, 'init_ShelterA_1_116': 937.0, 'init_ShelterA_1_117': 940.0, 'init_ShelterA_1_119': 943.0, 'init_ShelterA_1_120': 946.0, 'init_ShelterA_1_121': 949.0, 'init_ShelterA_1_123': 952.0, 'init_ShelterA_1_124': 954.0, 'init_ShelterA_1_125': 958.0, 'init_ShelterA_1_126': 961.0, 'init_ShelterA_1_127': 963.0, 'init_ShelterA_1_128': 995.0, 'init_ShelterA_1_130': 997.0, 'init_ShelterA_1_131': 999.0, 'init_ShelterA_1_145': 1006.0, 'init_ShelterA_1_132': 1007.0, 'init_ShelterA_2_147': 1008.0, 'init_ShelterA_1_133': 1009.0, 'init_ShelterA_1_134': 1011.0, 'init_ShelterA_1_153': 1024.0, 'init_ShelterA_1_154': 1029.0, 'init_ShelterA_2_157': 1031.0, 'init_ShelterA_1_135': 1039.0, 'init_ShelterA_1_136': 1040.0, 'init_ShelterA_1_137': 1043.0, 'init_ShelterA_1_138': 1045.0, 'init_ShelterA_1_139': 1048.0, 'init_ShelterA_1_140': 1051.0, 'init_ShelterA_1_141': 1054.0, 'init_ShelterA_1_142': 1057.0, 'init_ShelterA_1_143': 1064.0, 'init_ShelterA_1_144': 1066.0, 'init_ShelterA_1_146': 1087.0, 'init_ShelterA_1_148': 1093.0, 'init_ShelterA_1_149': 1096.0, 'init_ShelterA_1_150': 1098.0, 'init_ShelterA_2_169': 1099.0, 'init_ShelterA_1_151': 1107.0, 'init_ShelterA_1_152': 1109.0, 'init_ShelterA_1_155': 1118.0, 'init_ShelterA_1_156': 1120.0, 'init_ShelterA_1_158': 1132.0, 'init_ShelterA_1_159': 1135.0, 'init_ShelterA_1_160': 1137.0, 'init_ShelterA_1_161': 1140.0, 'init_ShelterA_1_162': 1179.0, 'init_ShelterA_1_163': 1181.0, 'init_ShelterA_1_164': 1183.0, 'init_ShelterA_1_209': 1205.0, 'init_ShelterA_1_165': 1209.0, 'init_ShelterA_1_166': 1211.0, 'init_ShelterA_1_167': 1213.0, 'init_ShelterA_1_213': 1214.0, 'init_ShelterA_1_168': 1215.0, 'init_ShelterA_1_170': 1218.0, 'init_ShelterA_1_214': 1219.0, 'init_ShelterA_1_171': 1221.0, 'init_ShelterA_1_216': 1223.0, 'init_ShelterA_1_172': 1224.0, 'init_ShelterA_1_173': 1227.0, 'init_ShelterA_1_174': 1230.0, 'init_ShelterA_1_175': 1233.0, 'init_ShelterA_1_176': 1252.0, 'init_ShelterA_1_177': 1254.0, 'init_ShelterA_1_178': 1276.0, 'init_ShelterA_1_179': 1302.0, 'init_ShelterA_1_180': 1304.0, 'init_ShelterA_1_181': 1306.0, 'init_ShelterA_1_182': 1308.0, 'init_ShelterA_1_183': 1311.0, 'init_ShelterA_1_184': 1314.0, 'init_ShelterA_1_185': 1317.0, 'init_ShelterA_1_211': 1319.0, 'init_ShelterA_1_212': 1322.0, 'newveh_ShelterA_2_186_1': 1335.0, 'newveh_ShelterA_2_202_15': 1342.0, 'newveh_ShelterA_2_201_14': 1346.0, 'newveh_ShelterA_1_197_23': 1370.0, 'newveh_ShelterA_1_189_22': 1376.0, 'newveh_ShelterA_1_210_24': 1381.0, 'newveh_ShelterA_2_200_13': 1386.0, 'init_ShelterA_1_218': 1387.0, 'newveh_ShelterA_2_199_12': 1392.0, 'init_ShelterA_1_219': 1393.0, 'init_ShelterA_1_220': 1399.0, 'newveh_ShelterA_2_198_11': 1400.0, 'init_ShelterA_1_221': 1405.0, 'newveh_ShelterA_2_196_10': 1406.0, 'init_ShelterA_1_223': 1410.0, 'newveh_ShelterA_2_195_9': 1412.0, 'init_ShelterA_1_229': 1414.0, 'newveh_ShelterA_2_194_8': 1418.0, 'newveh_ShelterA_2_193_7': 1425.0, 'newveh_ShelterA_2_192_6': 1432.0, 'newveh_ShelterA_2_191_5': 1441.0, 'newveh_ShelterA_2_190_4': 1449.0, 'newveh_ShelterA_2_188_3': 1458.0, 'newveh_ShelterA_2_187_2': 1467.0, 'init_ShelterA_1_236': 1472.0, 'init_ShelterA_2_242': 1474.0, 'newveh_ShelterA_2_203_16': 1477.0, 'newveh_ShelterA_2_204_17': 1486.0, 'init_ShelterA_1_244': 1489.0, 'newveh_ShelterA_2_205_18': 1496.0, 'newveh_ShelterA_2_206_19': 1506.0, 'newveh_ShelterA_2_207_20': 1516.0, 'newveh_ShelterA_2_208_21': 1525.0, 'init_ShelterA_1_222': 1528.0, 'newveh_ShelterA_2_215_25': 1538.0, 'init_ShelterA_1_248': 1544.0, 'init_ShelterA_1_251': 1551.0, 'init_ShelterA_1_254': 1555.0, 'newveh_ShelterA_2_217_26': 1559.0, 'init_ShelterA_1_226': 1561.0, 'init_ShelterA_1_227': 1563.0, 'init_ShelterA_1_255': 1564.0, 'init_ShelterA_1_228': 1565.0, 'init_ShelterA_1_230': 1567.0, 'init_ShelterA_1_231': 1570.0, 'init_ShelterA_1_256': 1570.0, 'init_ShelterA_1_232': 1573.0, 'init_ShelterA_1_233': 1575.0, 'init_ShelterA_1_257': 1576.0, 'init_ShelterA_1_234': 1578.0, 'init_ShelterA_1_235': 1581.0, 'init_ShelterA_1_258': 1582.0, 'init_ShelterA_1_237': 1584.0, 'init_ShelterA_1_238': 1587.0, 'init_ShelterA_1_259': 1589.0, 'init_ShelterA_1_239': 1590.0, 'init_ShelterA_1_240': 1593.0, 'init_ShelterA_1_241': 1596.0, 'init_ShelterA_1_260': 1596.0, 'init_ShelterA_1_243': 1599.0, 'init_ShelterA_1_245': 1602.0, 'init_ShelterA_1_261': 1603.0, 'init_ShelterA_1_246': 1605.0, 'init_ShelterA_1_265': 1607.0, 'init_ShelterA_1_266': 1612.0, 'init_ShelterA_2_267': 1616.0, 'init_ShelterA_1_268': 1641.0, 'newveh_ShelterA_2_272_47': 1642.0, 'init_ShelterA_2_269': 1643.0, 'newveh_ShelterA_2_270_46': 1647.0, 'init_ShelterA_1_249': 1649.0, 'init_ShelterA_1_271': 1650.0, 'init_ShelterA_1_250': 1651.0, 'init_ShelterA_1_252': 1653.0, 'init_ShelterA_1_273': 1656.0, 'init_ShelterA_1_275': 1661.0, 'init_ShelterA_1_276': 1668.0, 'newveh_ShelterA_2_224_27': 1670.0, 'init_ShelterA_1_278': 1674.0, 'init_ShelterA_2_279': 1676.0, 'init_ShelterA_1_282': 1681.0, 'newveh_ShelterA_2_225_28': 1686.0, 'newveh_ShelterA_1_247_29': 1724.0, 'newveh_ShelterA_1_253_30': 1734.0, 'newveh_ShelterA_2_285_55': 1748.0, 'newveh_ShelterA_1_263_33': 1765.0, 'newveh_ShelterA_2_281_54': 1767.0, 'init_ShelterA_1_274': 1770.0, 'init_ShelterA_1_277': 1772.0, 'init_ShelterA_1_280': 1774.0, 'init_ShelterA_1_283': 1776.0, 'init_ShelterA_1_286': 1778.0, 'init_ShelterA_1_287': 1780.0, 'init_ShelterA_1_289': 1783.0, 'init_ShelterA_1_290': 1790.0, 'init_ShelterA_1_313': 1812.0, 'init_ShelterA_1_291': 1818.0, 'init_ShelterA_1_292': 1820.0, 'init_ShelterA_1_294': 1822.0, 'init_ShelterA_1_315': 1823.0, 'init_ShelterA_1_316': 1831.0, 'init_ShelterA_2_318': 1833.0, 'init_ShelterA_2_320': 1835.0, 'init_ShelterA_1_295': 1837.0, 'init_ShelterA_1_323': 1842.0, 'init_ShelterA_1_324': 1846.0, 'init_ShelterA_1_296': 1853.0, 'init_ShelterA_1_298': 1855.0, 'init_ShelterA_1_330': 1855.0, 'init_ShelterA_1_299': 1857.0, 'init_ShelterA_1_307': 1859.0, 'init_ShelterA_1_331': 1859.0, 'init_ShelterA_1_308': 1862.0, 'init_ShelterA_1_310': 1864.0, 'newveh_ShelterA_2_262_31': 1883.0, 'newveh_ShelterA_2_264_32': 1892.0, 'init_ShelterA_1_312': 1894.0, 'newveh_ShelterA_2_314_68': 1901.0, 'newveh_ShelterA_2_304_67': 1905.0, 'init_ShelterA_1_339': 1909.0, 'init_ShelterA_2_340': 1911.0, 'init_ShelterA_2_341': 1913.0, 'newveh_ShelterA_2_327_72': 1917.0, 'init_ShelterA_1_317': 1920.0, 'init_ShelterA_1_319': 1922.0, 'init_ShelterA_1_321': 1924.0, 'init_ShelterA_1_325': 1926.0, 'newveh_ShelterA_1_297_37': 1929.0, 'init_ShelterA_1_361': 1939.0, 'init_ShelterA_1_326': 1942.0, 'init_ShelterA_1_328': 1945.0, 'init_ShelterA_1_329': 1946.0, 'init_ShelterA_1_332': 1948.0, 'newveh_ShelterA_2_362_74': 1971.0, 'init_ShelterA_1_335': 1984.0, 'init_ShelterA_1_363': 1994.0, 'init_ShelterA_1_338': 2000.0, 'init_ShelterA_1_364': 2001.0, 'init_ShelterA_1_343': 2002.0, 'init_ShelterA_1_365': 2006.0, 'init_ShelterA_1_366': 2014.0, 'init_ShelterA_1_367': 2019.0, 'init_ShelterA_2_368': 2021.0, 'init_ShelterA_1_344': 2026.0, 'init_ShelterA_1_369': 2026.0, 'init_ShelterA_1_345': 2029.0, 'init_ShelterA_1_374': 2036.0, 'init_ShelterA_1_375': 2040.0, 'newveh_ShelterA_2_293_36': 2048.0, 'newveh_ShelterA_2_288_35': 2056.0, 'newveh_ShelterA_2_284_34': 2076.0, 'init_ShelterA_1_354': 2078.0, 'init_ShelterA_1_356': 2081.0, 'init_ShelterA_1_358': 2083.0, 'init_ShelterA_1_376': 2084.0, 'init_ShelterA_1_360': 2085.0, 'init_ShelterA_1_370': 2087.0, 'newveh_ShelterA_1_311_45': 2090.0, 'init_ShelterA_1_379': 2097.0, 'init_ShelterA_1_380': 2104.0, 'init_ShelterA_1_381': 2108.0, 'newveh_ShelterA_2_300_38': 2108.0, 'init_ShelterA_1_383': 2112.0, 'newveh_ShelterA_2_309_44': 2113.0, 'newveh_ShelterA_2_306_43': 2141.0, 'newveh_ShelterA_2_305_42': 2149.0, 'newveh_ShelterA_2_303_41': 2157.0, 'newveh_ShelterA_2_302_40': 2162.0, 'newveh_ShelterA_2_301_39': 2166.0, 'init_ShelterA_1_377': 2168.0, 'init_ShelterA_1_378': 2170.0, 'init_ShelterA_1_382': 2176.0, 'init_ShelterA_1_384': 2184.0, 'init_ShelterA_1_385': 2186.0, 'init_ShelterA_1_386': 2187.0, 'newveh_ShelterA_1_322_48': 2187.0, 'init_ShelterA_1_387': 2190.0, 'newveh_ShelterA_1_342_53': 2194.0, 'newveh_ShelterA_1_334_49': 2200.0, 'init_ShelterA_1_388': 2206.0, 'newveh_ShelterA_1_353_56': 2206.0, 'newveh_ShelterA_1_336_52': 2213.0, 'init_ShelterA_1_389': 2214.0, 'newveh_ShelterA_1_359_66': 2218.0, 'newveh_ShelterA_1_333_51': 2222.0, 'init_ShelterA_1_390': 2228.0, 'init_ShelterA_1_391': 2230.0, 'init_ShelterA_1_392': 2267.0, 'init_ShelterA_1_393': 2269.0, 'init_ShelterA_1_394': 2273.0, 'init_ShelterA_1_395': 2275.0, 'init_ShelterA_1_397': 2278.0, 'init_ShelterA_1_398': 2280.0, 'init_ShelterA_1_399': 2281.0, 'newveh_ShelterA_1_396_73': 2284.0, 'newveh_ShelterA_2_337_50': 2302.0, 'newveh_ShelterA_2_357_65': 2340.0, 'newveh_ShelterA_2_355_64': 2345.0, 'newveh_ShelterA_2_352_63': 2380.0, 'newveh_ShelterA_2_351_62': 2387.0, 'newveh_ShelterA_2_350_61': 2393.0, 'newveh_ShelterA_2_349_60': 2399.0, 'newveh_ShelterA_2_348_59': 2406.0, 'newveh_ShelterA_2_347_58': 2413.0, 'newveh_ShelterA_2_346_57': 2421.0, 'newveh_ShelterA_2_371_69': 2428.0, 'newveh_ShelterA_2_373_71': 2433.0, 'newveh_ShelterA_2_372_70': 2437.0}
vehicle_abandant_time_by_pedestrianID_dict:{}
walking_distance_by_pedestrianID_dict:{}
route_change_time_by_vehID_dict:{'init_ShelterA_1_47': 370.0, 'init_ShelterA_2_54': 400.0, 'init_ShelterA_2_66': 440.0, 'init_ShelterA_2_68': 440.0, 'init_ShelterA_1_64': 450.0, 'init_ShelterA_1_65': 450.0, 'init_ShelterA_1_67': 450.0, 'init_ShelterA_1_70': 450.0, 'init_ShelterA_1_60': 460.0, 'init_ShelterA_1_61': 460.0, 'init_ShelterA_1_62': 460.0, 'init_ShelterA_1_63': 460.0, 'init_ShelterA_1_69': 460.0, 'init_ShelterA_2_71': 460.0, 'init_ShelterA_2_73': 500.0, 'init_ShelterA_2_74': 500.0, 'init_ShelterA_1_77': 510.0, 'init_ShelterA_1_82': 550.0, 'init_ShelterA_1_85': 550.0, 'init_ShelterA_2_89': 550.0, 'init_ShelterA_1_81': 560.0, 'init_ShelterA_1_83': 560.0, 'init_ShelterA_1_87': 560.0, 'init_ShelterA_1_88': 560.0, 'init_ShelterA_1_93': 590.0, 'init_ShelterA_1_98': 600.0, 'init_ShelterA_2_101': 600.0, 'init_ShelterA_2_102': 600.0, 'init_ShelterA_1_105': 610.0, 'init_ShelterA_1_95': 610.0, 'init_ShelterA_1_96': 610.0, 'init_ShelterA_1_97': 610.0, 'init_ShelterA_1_99': 610.0, 'init_ShelterA_1_94': 620.0, 'init_ShelterA_1_108': 660.0, 'init_ShelterA_2_111': 680.0, 'init_ShelterA_2_114': 680.0, 'init_ShelterA_1_113': 690.0, 'init_ShelterA_1_116': 690.0, 'init_ShelterA_1_119': 690.0, 'init_ShelterA_1_121': 690.0, 'init_ShelterA_1_125': 690.0, 'init_ShelterA_1_115': 700.0, 'init_ShelterA_1_117': 700.0, 'init_ShelterA_1_120': 700.0, 'init_ShelterA_1_124': 700.0, 'init_ShelterA_1_112': 710.0, 'init_ShelterA_1_123': 710.0, 'init_ShelterA_1_110': 720.0, 'init_ShelterA_1_126': 750.0, 'init_ShelterA_1_127': 750.0, 'init_ShelterA_1_130': 760.0, 'init_ShelterA_1_133': 760.0, 'init_ShelterA_1_128': 770.0, 'init_ShelterA_1_135': 770.0, 'init_ShelterA_1_138': 770.0, 'init_ShelterA_1_134': 780.0, 'init_ShelterA_1_140': 780.0, 'init_ShelterA_1_137': 790.0, 'init_ShelterA_1_139': 790.0, 'init_ShelterA_1_141': 790.0, 'init_ShelterA_1_186': 810.0, 'init_ShelterA_1_187': 810.0, 'init_ShelterA_1_188': 810.0, 'init_ShelterA_1_190': 810.0, 'init_ShelterA_1_191': 810.0, 'init_ShelterA_1_192': 810.0, 'init_ShelterA_1_193': 810.0, 'init_ShelterA_1_194': 810.0, 'init_ShelterA_1_195': 810.0, 'init_ShelterA_1_196': 810.0, 'init_ShelterA_1_198': 810.0, 'init_ShelterA_1_199': 810.0, 'init_ShelterA_1_200': 810.0, 'init_ShelterA_1_201': 810.0, 'init_ShelterA_1_202': 810.0, 'init_ShelterA_1_203': 810.0, 'init_ShelterA_1_204': 810.0, 'init_ShelterA_1_205': 810.0, 'init_ShelterA_1_206': 810.0, 'init_ShelterA_1_207': 810.0, 'init_ShelterA_1_208': 810.0, 'init_ShelterA_2_189': 810.0, 'init_ShelterA_2_197': 810.0, 'init_ShelterA_2_210': 810.0, 'init_ShelterA_1_131': 820.0, 'init_ShelterA_1_144': 820.0, 'init_ShelterA_1_136': 830.0, 'init_ShelterA_1_143': 830.0, 'init_ShelterA_1_132': 840.0, 'init_ShelterA_1_146': 840.0, 'init_ShelterA_1_148': 840.0, 'init_ShelterA_1_149': 840.0, 'init_ShelterA_1_215': 840.0, 'init_ShelterA_1_217': 840.0, 'init_ShelterA_1_142': 850.0, 'init_ShelterA_1_152': 850.0, 'init_ShelterA_1_155': 850.0, 'init_ShelterA_2_147': 850.0, 'init_ShelterA_2_157': 850.0, 'init_ShelterA_1_151': 860.0, 'init_ShelterA_1_156': 860.0, 'init_ShelterA_1_159': 860.0, 'init_ShelterA_1_150': 910.0, 'init_ShelterA_1_163': 920.0, 'init_ShelterA_1_158': 930.0, 'init_ShelterA_2_169': 930.0, 'init_ShelterA_1_168': 940.0, 'init_ShelterA_1_171': 940.0, 'init_ShelterA_1_172': 940.0, 'init_ShelterA_1_173': 940.0, 'init_ShelterA_1_165': 950.0, 'init_ShelterA_1_167': 950.0, 'init_ShelterA_1_176': 950.0, 'init_ShelterA_1_177': 950.0, 'init_ShelterA_1_161': 960.0, 'init_ShelterA_1_162': 960.0, 'init_ShelterA_1_164': 960.0, 'init_ShelterA_1_170': 960.0, 'init_ShelterA_1_174': 960.0, 'init_ShelterA_1_175': 960.0, 'init_ShelterA_1_178': 960.0, 'init_ShelterA_1_179': 960.0, 'init_ShelterA_1_160': 970.0, 'init_ShelterA_1_166': 970.0, 'init_ShelterA_1_224': 970.0, 'init_ShelterA_1_225': 970.0, 'init_ShelterA_1_180': 990.0, 'init_ShelterA_1_181': 990.0, 'init_ShelterA_1_182': 990.0, 'init_ShelterA_1_183': 1000.0, 'init_ShelterA_1_184': 1000.0, 'init_ShelterA_1_185': 1010.0, 'init_ShelterA_1_211': 1010.0, 'init_ShelterA_1_212': 1020.0, 'init_ShelterA_2_247': 1060.0, 'init_ShelterA_2_253': 1070.0, 'init_ShelterA_1_262': 1120.0, 'init_ShelterA_1_264': 1120.0, 'init_ShelterA_2_263': 1120.0, 'init_ShelterA_1_284': 1250.0, 'init_ShelterA_1_288': 1250.0, 'init_ShelterA_1_293': 1250.0, 'init_ShelterA_2_242': 1260.0, 'init_ShelterA_2_297': 1270.0, 'init_ShelterA_1_231': 1290.0, 'init_ShelterA_1_233': 1290.0, 'init_ShelterA_1_235': 1290.0, 'init_ShelterA_1_228': 1300.0, 'init_ShelterA_1_232': 1300.0, 'init_ShelterA_1_234': 1300.0, 'init_ShelterA_1_238': 1300.0, 'init_ShelterA_1_240': 1300.0, 'init_ShelterA_1_243': 1300.0, 'init_ShelterA_1_245': 1300.0, 'init_ShelterA_1_249': 1300.0, 'init_ShelterA_1_222': 1310.0, 'init_ShelterA_1_226': 1310.0, 'init_ShelterA_1_227': 1310.0, 'init_ShelterA_1_230': 1310.0, 'init_ShelterA_1_237': 1310.0, 'init_ShelterA_1_239': 1310.0, 'init_ShelterA_1_241': 1310.0, 'init_ShelterA_1_250': 1310.0, 'init_ShelterA_1_252': 1310.0, 'init_ShelterA_1_246': 1320.0, 'init_ShelterA_1_300': 1320.0, 'init_ShelterA_1_301': 1320.0, 'init_ShelterA_1_302': 1320.0, 'init_ShelterA_1_303': 1320.0, 'init_ShelterA_1_305': 1320.0, 'init_ShelterA_1_306': 1320.0, 'init_ShelterA_1_309': 1320.0, 'init_ShelterA_2_311': 1340.0, 'init_ShelterA_2_267': 1350.0, 'init_ShelterA_2_269': 1350.0, 'init_ShelterA_1_270': 1360.0, 'init_ShelterA_1_272': 1360.0, 'init_ShelterA_2_322': 1410.0, 'init_ShelterA_2_334': 1410.0, 'init_ShelterA_1_337': 1420.0, 'init_ShelterA_2_333': 1420.0, 'init_ShelterA_2_336': 1420.0, 'init_ShelterA_2_279': 1430.0, 'init_ShelterA_2_342': 1430.0, 'init_ShelterA_1_277': 1440.0, 'init_ShelterA_1_281': 1440.0, 'init_ShelterA_1_285': 1440.0, 'init_ShelterA_1_274': 1450.0, 'init_ShelterA_1_287': 1450.0, 'init_ShelterA_1_291': 1450.0, 'init_ShelterA_1_283': 1460.0, 'init_ShelterA_1_286': 1460.0, 'init_ShelterA_1_290': 1460.0, 'init_ShelterA_1_294': 1470.0, 'init_ShelterA_1_295': 1470.0, 'init_ShelterA_2_353': 1470.0, 'init_ShelterA_1_280': 1480.0, 'init_ShelterA_1_346': 1490.0, 'init_ShelterA_1_347': 1490.0, 'init_ShelterA_1_348': 1490.0, 'init_ShelterA_1_349': 1490.0, 'init_ShelterA_1_350': 1490.0, 'init_ShelterA_1_351': 1490.0, 'init_ShelterA_1_352': 1490.0, 'init_ShelterA_1_355': 1490.0, 'init_ShelterA_1_357': 1490.0, 'init_ShelterA_1_292': 1500.0, 'init_ShelterA_2_359': 1500.0, 'init_ShelterA_1_289': 1510.0, 'init_ShelterA_1_298': 1520.0, 'init_ShelterA_1_299': 1520.0, 'init_ShelterA_1_307': 1520.0, 'init_ShelterA_1_308': 1520.0, 'init_ShelterA_1_310': 1520.0, 'init_ShelterA_1_296': 1530.0, 'init_ShelterA_1_304': 1530.0, 'init_ShelterA_1_314': 1530.0, 'init_ShelterA_1_317': 1560.0, 'init_ShelterA_1_371': 1560.0, 'init_ShelterA_1_372': 1560.0, 'init_ShelterA_1_373': 1560.0, 'init_ShelterA_2_320': 1600.0, 'init_ShelterA_1_319': 1610.0, 'init_ShelterA_1_321': 1610.0, 'init_ShelterA_1_327': 1610.0, 'init_ShelterA_2_318': 1610.0, 'init_ShelterA_2_340': 1640.0, 'init_ShelterA_1_312': 1650.0, 'init_ShelterA_1_354': 1650.0, 'init_ShelterA_1_356': 1650.0, 'init_ShelterA_1_360': 1650.0, 'init_ShelterA_1_358': 1660.0, 'init_ShelterA_1_335': 1670.0, 'init_ShelterA_1_338': 1670.0, 'init_ShelterA_2_396': 1670.0, 'init_ShelterA_1_328': 1680.0, 'init_ShelterA_1_332': 1680.0, 'init_ShelterA_1_343': 1680.0, 'init_ShelterA_1_344': 1680.0, 'init_ShelterA_2_341': 1680.0, 'init_ShelterA_1_325': 1690.0, 'init_ShelterA_1_326': 1690.0, 'init_ShelterA_1_329': 1690.0, 'init_ShelterA_1_345': 1700.0, 'init_ShelterA_1_362': 1700.0, 'init_ShelterA_1_370': 1730.0, 'init_ShelterA_2_368': 1730.0, 'init_ShelterA_1_377': 1740.0, 'init_ShelterA_1_378': 1740.0, 'init_ShelterA_1_382': 1990.0, 'init_ShelterA_1_385': 1990.0, 'init_ShelterA_1_388': 1990.0, 'init_ShelterA_1_389': 1990.0, 'init_ShelterA_1_391': 1990.0, 'init_ShelterA_1_392': 1990.0, 'init_ShelterA_1_394': 1990.0, 'init_ShelterA_1_395': 1990.0, 'init_ShelterA_1_386': 2000.0, 'init_ShelterA_1_387': 2000.0, 'init_ShelterA_1_390': 2000.0, 'init_ShelterA_1_393': 2000.0, 'init_ShelterA_1_397': 2000.0, 'init_ShelterA_1_398': 2000.0, 'init_ShelterA_1_384': 2010.0, 'init_ShelterA_1_399': 2010.0}
pedestrian_count:0
route_changed_vehicle_count:266
route_change_event_count:266
rate_vehicle_abandonment:0.00%
wrong_way_driving_count:0
vehicle_abandonment_count:0
normalcy_bias_route_change_count:96
majority_bias_route_change_count:170
lane_changed_vehicle_count:0
info_obtained_lanechange_count:0
elapsed_time_lanechange_count:0
majority_bias_lanechange_count:0

=== Job Result ===
end=2026-07-13T02:52:52+0900
elapsed_seconds=455
exit_code=0
status=SUCCESS
