=== Job Info ===
job_name=va_s4_e1.0_v1.0_r4
host=schubert
pid=112430
scenario=4
early_rate=1.0
v2v_rate=1.0
run_id=4
config=/home/katagi/vehicle-assistant-system/scenarios/JIP/configs/config_scenario_4.toml
output_dir=/home/katagi/vehicle-assistant-system/schubert_logs/va_s4_e1.0_v1.0_r4
start=2026-07-13T01:14:10+0900
python_version=Python 3.12.3
sumo_version=Eclipse SUMO sumo Version v1_23_1+0435-630512a

=== Command ===
cd /home/katagi/vehicle-assistant-system/schubert_logs/va_s4_e1.0_v1.0_r4
PYTHONPATH=/home/katagi/vehicle-assistant-system:/home/katagi/tmp/sumo/tools:/home/katagi/local/sumo/tools:/home/katagi/tmp/sumo/tools:/home/katagi/local/sumo/tools:/home/katagi/tmp/sumo/tools:/home/katagi/local/sumo/tools: python3 -W ignore::UserWarning -m scenarios.JIP.1-1-4.simulation.runner_simulator --nogui /home/katagi/vehicle-assistant-system/scenarios/JIP/configs/config_scenario_4.toml 1.0 1.0
simulation_pid=112450
Step #0.00 (0ms ?*RT. ?UPS, TraCI: 335ms, vehicles TOT 1 ACT 1 BUF 0)                     Step #100.00 (0ms ?*RT. ?UPS, TraCI: 18ms, vehicles TOT 26 ACT 26 BUF 0)                  Step #200.00 (0ms ?*RT. ?UPS, TraCI: 37ms, vehicles TOT 51 ACT 51 BUF 0)                  Step #300.00 (1ms ~= 1000.00*RT, ~77000.00UPS, TraCI: 52ms, vehicles TOT 77 ACT 77 BUF 0) Step #400.00 (1ms ~= 1000.00*RT, ~104000.00UPS, TraCI: 661ms, vehicles TOT 104 ACT 104 BUFStep #500.00 (0ms ?*RT. ?UPS, TraCI: 1886ms, vehicles TOT 131 ACT 131 BUF 0)              Step #600.00 (0ms ?*RT. ?UPS, TraCI: 2082ms, vehicles TOT 158 ACT 158 BUF 0)              Step #700.00 (1ms ~= 1000.00*RT, ~184000.00UPS, TraCI: 2157ms, vehicles TOT 184 ACT 184 BUStep #800.00 (0ms ?*RT. ?UPS, TraCI: 2222ms, vehicles TOT 207 ACT 207 BUF 8)              Step #900.00 (1ms ~= 1000.00*RT, ~209000.00UPS, TraCI: 3157ms, vehicles TOT 236 ACT 209 BUStep #1000.00 (0ms ?*RT. ?UPS, TraCI: 3828ms, vehicles TOT 272 ACT 233 BUF 41)            Step #1100.00 (1ms ~= 1000.00*RT, ~257000.00UPS, TraCI: 2537ms, vehicles TOT 308 ACT 257 BStep #1200.00 (1ms ~= 1000.00*RT, ~272000.00UPS, TraCI: 3119ms, vehicles TOT 326 ACT 272 BStep #1300.00 (1ms ~= 1000.00*RT, ~300000.00UPS, TraCI: 3370ms, vehicles TOT 359 ACT 300 BStep #1400.00 (1ms ~= 1000.00*RT, ~320000.00UPS, TraCI: 3560ms, vehicles TOT 394 ACT 320 BStep #1500.00 (1ms ~= 1000.00*RT, ~342000.00UPS, TraCI: 3413ms, vehicles TOT 427 ACT 342 BStep #1600.00 (1ms ~= 1000.00*RT, ~356000.00UPS, TraCI: 2695ms, vehicles TOT 450 ACT 356 BStep #1700.00 (1ms ~= 1000.00*RT, ~378000.00UPS, TraCI: 2411ms, vehicles TOT 482 ACT 378 BStep #1800.00 (1ms ~= 1000.00*RT, ~398000.00UPS, TraCI: 2315ms, vehicles TOT 504 ACT 398 BStep #1900.00 (1ms ~= 1000.00*RT, ~400000.00UPS, TraCI: 2577ms, vehicles TOT 506 ACT 400 BStep #2000.00 (1ms ~= 1000.00*RT, ~400000.00UPS, TraCI: 2001ms, vehicles TOT 506 ACT 400 BStep #2100.00 (0ms ?*RT. ?UPS, TraCI: 1319ms, vehicles TOT 506 ACT 400 BUF 0)             Step #2200.00 (0ms ?*RT. ?UPS, TraCI: 655ms, vehicles TOT 506 ACT 400 BUF 0)              Step #2300.00 (1ms ~= 1000.00*RT, ~400000.00UPS, TraCI: 156ms, vehicles TOT 506 ACT 400 BUStep #2400.00 (1ms ~= 1000.00*RT, ~400000.00UPS, TraCI: 80ms, vehicles TOT 506 ACT 400 BUFStep #2500.00 (0ms ?*RT. ?UPS, TraCI: 74ms, vehicles TOT 506 ACT 400 BUF 0)               Step #2600.00 (0ms ?*RT. ?UPS, TraCI: 77ms, vehicles TOT 506 ACT 400 BUF 0)               Step #2700.00 (0ms ?*RT. ?UPS, TraCI: 76ms, vehicles TOT 506 ACT 400 BUF 0)               Step #2800.00 (0ms ?*RT. ?UPS, TraCI: 79ms, vehicles TOT 506 ACT 400 BUF 0)               Step #2900.00 (0ms ?*RT. ?UPS, TraCI: 78ms, vehicles TOT 506 ACT 400 BUF 0)               Step #3000.00 (0ms ?*RT. ?UPS, TraCI: 77ms, vehicles TOT 506 ACT 400 BUF 0)               
 Retrying in 1 seconds
出現数: {'A1': 362, 'A2': 38}
割合:
  Total: 400
  A1: 362 (90.50%)
  A2: 38 (9.50%)
  B1: 0 (0.00%)
  B2: 0 (0.00%)
mean elapsed_time: 623.9175
OK all vehs arrived 
平均渋滞継続時間: 532.59秒
OK all vehicle abandonment were detected
288
112
===== Simlation Result Summary =====
avg_congestion_duration: 532.59 
arrival_time_by_vehID_dict:{'init_ShelterA_1_0': 224.0, 'init_ShelterA_1_1': 230.0, 'init_ShelterA_1_2': 236.0, 'init_ShelterA_1_3': 242.0, 'init_ShelterA_1_4': 249.0, 'init_ShelterA_1_5': 253.0, 'init_ShelterA_1_6': 258.0, 'init_ShelterA_1_8': 288.0, 'init_ShelterA_1_9': 295.0, 'init_ShelterA_1_10': 301.0, 'init_ShelterA_1_11': 306.0, 'init_ShelterA_1_12': 312.0, 'init_ShelterA_1_13': 318.0, 'init_ShelterA_1_15': 325.0, 'init_ShelterA_1_16': 332.0, 'init_ShelterA_1_17': 340.0, 'init_ShelterA_1_18': 349.0, 'init_ShelterA_1_19': 358.0, 'init_ShelterA_1_20': 366.0, 'init_ShelterA_1_21': 372.0, 'init_ShelterA_1_23': 380.0, 'init_ShelterA_2_7': 381.0, 'init_ShelterA_1_24': 389.0, 'init_ShelterA_1_25': 398.0, 'init_ShelterA_1_26': 407.0, 'init_ShelterA_1_27': 417.0, 'init_ShelterA_2_14': 426.0, 'init_ShelterA_1_28': 427.0, 'init_ShelterA_2_22': 431.0, 'init_ShelterA_1_29': 436.0, 'init_ShelterA_1_30': 446.0, 'init_ShelterA_1_31': 456.0, 'init_ShelterA_1_32': 465.0, 'init_ShelterA_1_33': 475.0, 'init_ShelterA_1_34': 485.0, 'init_ShelterA_1_35': 495.0, 'init_ShelterA_1_36': 504.0, 'init_ShelterA_1_37': 514.0, 'init_ShelterA_1_38': 524.0, 'init_ShelterA_1_39': 533.0, 'init_ShelterA_1_40': 543.0, 'init_ShelterA_1_41': 552.0, 'init_ShelterA_1_42': 562.0, 'init_ShelterA_1_43': 571.0, 'init_ShelterA_2_47': 571.0, 'init_ShelterA_1_55': 579.0, 'init_ShelterA_1_44': 581.0, 'init_ShelterA_1_45': 591.0, 'init_ShelterA_1_46': 600.0, 'init_ShelterA_1_48': 609.0, 'init_ShelterA_1_49': 619.0, 'init_ShelterA_2_50': 621.0, 'init_ShelterA_1_51': 632.0, 'init_ShelterA_1_52': 641.0, 'init_ShelterA_2_53': 643.0, 'init_ShelterA_1_54': 653.0, 'init_ShelterA_1_56': 663.0, 'init_ShelterA_1_57': 672.0, 'init_ShelterA_2_58': 674.0, 'init_ShelterA_1_59': 685.0, 'init_ShelterA_1_60': 695.0, 'init_ShelterA_1_61': 704.0, 'init_ShelterA_1_62': 714.0, 'init_ShelterA_1_63': 723.0, 'init_ShelterA_1_64': 733.0, 'init_ShelterA_1_65': 743.0, 'init_ShelterA_1_66': 752.0, 'init_ShelterA_1_67': 762.0, 'init_ShelterA_1_68': 771.0, 'init_ShelterA_2_93': 776.0, 'init_ShelterA_1_69': 781.0, 'init_ShelterA_1_70': 790.0, 'init_ShelterA_1_71': 800.0, 'init_ShelterA_1_72': 809.0, 'init_ShelterA_1_73': 819.0, 'init_ShelterA_1_74': 828.0, 'init_ShelterA_1_75': 838.0, 'init_ShelterA_1_76': 847.0, 'init_ShelterA_1_77': 856.0, 'init_ShelterA_1_102': 857.0, 'init_ShelterA_1_104': 860.0, 'init_ShelterA_1_106': 862.0, 'init_ShelterA_1_108': 865.0, 'init_ShelterA_1_78': 866.0, 'init_ShelterA_1_109': 868.0, 'init_ShelterA_1_79': 875.0, 'init_ShelterA_2_111': 882.0, 'init_ShelterA_1_80': 884.0, 'init_ShelterA_1_81': 893.0, 'init_ShelterA_1_82': 902.0, 'init_ShelterA_1_83': 912.0, 'init_ShelterA_1_84': 921.0, 'init_ShelterA_1_118': 925.0, 'init_ShelterA_1_120': 927.0, 'init_ShelterA_1_122': 930.0, 'init_ShelterA_1_85': 930.0, 'init_ShelterA_1_86': 939.0, 'init_ShelterA_1_87': 948.0, 'init_ShelterA_1_88': 957.0, 'init_ShelterA_1_89': 966.0, 'init_ShelterA_1_90': 975.0, 'init_ShelterA_1_91': 984.0, 'init_ShelterA_1_92': 993.0, 'init_ShelterA_1_94': 1002.0, 'init_ShelterA_1_95': 1011.0, 'init_ShelterA_1_96': 1019.0, 'init_ShelterA_1_97': 1028.0, 'init_ShelterA_1_138': 1030.0, 'init_ShelterA_1_140': 1032.0, 'init_ShelterA_1_141': 1035.0, 'init_ShelterA_1_98': 1037.0, 'init_ShelterA_1_144': 1038.0, 'init_ShelterA_1_145': 1041.0, 'init_ShelterA_1_99': 1046.0, 'init_ShelterA_2_100': 1048.0, 'init_ShelterA_1_101': 1058.0, 'init_ShelterA_1_103': 1067.0, 'init_ShelterA_1_105': 1076.0, 'init_ShelterA_1_148': 1084.0, 'init_ShelterA_1_107': 1085.0, 'init_ShelterA_1_151': 1093.0, 'init_ShelterA_1_110': 1094.0, 'init_ShelterA_1_112': 1103.0, 'init_ShelterA_1_113': 1112.0, 'init_ShelterA_2_114': 1114.0, 'init_ShelterA_1_115': 1123.0, 'init_ShelterA_1_116': 1133.0, 'init_ShelterA_1_117': 1142.0, 'init_ShelterA_1_162': 1149.0, 'init_ShelterA_1_119': 1151.0, 'init_ShelterA_2_121': 1153.0, 'init_ShelterA_1_123': 1163.0, 'init_ShelterA_1_124': 1173.0, 'init_ShelterA_1_125': 1182.0, 'init_ShelterA_1_126': 1191.0, 'init_ShelterA_1_127': 1201.0, 'init_ShelterA_1_179': 1208.0, 'init_ShelterA_1_128': 1210.0, 'init_ShelterA_1_129': 1219.0, 'init_ShelterA_1_130': 1228.0, 'init_ShelterA_1_131': 1237.0, 'newveh_ShelterA_2_176_50': 1241.0, 'init_ShelterA_1_132': 1246.0, 'init_ShelterA_1_133': 1255.0, 'init_ShelterA_1_134': 1264.0, 'init_ShelterA_1_135': 1273.0, 'init_ShelterA_1_180': 1273.0, 'init_ShelterA_1_181': 1275.0, 'init_ShelterA_1_182': 1278.0, 'init_ShelterA_1_211': 1281.0, 'init_ShelterA_1_136': 1282.0, 'init_ShelterA_1_212': 1284.0, 'init_ShelterA_1_137': 1291.0, 'init_ShelterA_1_139': 1300.0, 'init_ShelterA_2_142': 1302.0, 'newveh_ShelterA_2_183_0': 1302.0, 'init_ShelterA_1_213': 1304.0, 'init_ShelterA_2_143': 1304.0, 'init_ShelterA_1_216': 1307.0, 'newveh_ShelterA_2_186_1': 1313.0, 'init_ShelterA_1_146': 1314.0, 'init_ShelterA_2_147': 1316.0, 'init_ShelterA_1_149': 1327.0, 'init_ShelterA_1_150': 1337.0, 'newveh_ShelterA_2_191_4': 1342.0, 'init_ShelterA_1_152': 1346.0, 'newveh_ShelterA_2_190_3': 1351.0, 'init_ShelterA_1_153': 1356.0, 'newveh_ShelterA_2_187_2': 1357.0, 'newveh_ShelterA_2_192_5': 1362.0, 'init_ShelterA_1_154': 1365.0, 'newveh_ShelterA_2_193_6': 1366.0, 'init_ShelterA_1_155': 1374.0, 'init_ShelterA_1_156': 1384.0, 'newveh_ShelterA_2_194_7': 1388.0, 'init_ShelterA_1_157': 1393.0, 'newveh_ShelterA_2_195_8': 1395.0, 'newveh_ShelterA_2_196_9': 1401.0, 'init_ShelterA_1_158': 1403.0, 'newveh_ShelterA_2_197_10': 1406.0, 'init_ShelterA_1_159': 1412.0, 'newveh_ShelterA_2_198_11': 1412.0, 'newveh_ShelterA_2_199_12': 1418.0, 'init_ShelterA_1_160': 1421.0, 'newveh_ShelterA_2_200_13': 1423.0, 'newveh_ShelterA_2_201_14': 1430.0, 'init_ShelterA_1_161': 1431.0, 'newveh_ShelterA_2_202_15': 1437.0, 'init_ShelterA_1_163': 1440.0, 'newveh_ShelterA_2_203_16': 1444.0, 'init_ShelterA_1_164': 1449.0, 'newveh_ShelterA_2_204_17': 1452.0, 'init_ShelterA_1_165': 1458.0, 'newveh_ShelterA_2_205_18': 1461.0, 'init_ShelterA_1_166': 1468.0, 'newveh_ShelterA_2_206_19': 1469.0, 'init_ShelterA_1_167': 1477.0, 'newveh_ShelterA_2_209_22': 1477.0, 'newveh_ShelterA_2_208_21': 1481.0, 'init_ShelterA_1_168': 1486.0, 'newveh_ShelterA_2_207_20': 1486.0, 'init_ShelterA_1_236': 1488.0, 'init_ShelterA_1_169': 1495.0, 'init_ShelterA_1_170': 1504.0, 'init_ShelterA_1_171': 1513.0, 'init_ShelterA_2_172': 1515.0, 'init_ShelterA_1_173': 1525.0, 'init_ShelterA_1_174': 1534.0, 'init_ShelterA_1_241': 1534.0, 'init_ShelterA_1_175': 1543.0, 'init_ShelterA_1_177': 1552.0, 'init_ShelterA_1_242': 1561.0, 'init_ShelterA_1_178': 1562.0, 'init_ShelterA_1_244': 1562.0, 'init_ShelterA_1_245': 1564.0, 'init_ShelterA_1_246': 1567.0, 'init_ShelterA_1_255': 1569.0, 'init_ShelterA_1_210': 1571.0, 'init_ShelterA_1_256': 1572.0, 'init_ShelterA_2_214': 1573.0, 'init_ShelterA_1_258': 1575.0, 'init_ShelterA_1_215': 1583.0, 'init_ShelterA_1_217': 1592.0, 'newveh_ShelterA_1_189_26': 1602.0, 'newveh_ShelterA_1_188_25': 1611.0, 'newveh_ShelterA_1_185_24': 1620.0, 'newveh_ShelterA_1_184_23': 1629.0, 'init_ShelterA_1_219': 1638.0, 'newveh_ShelterA_2_221_30': 1643.0, 'init_ShelterA_1_220': 1648.0, 'init_ShelterA_1_227': 1657.0, 'init_ShelterA_1_229': 1666.0, 'init_ShelterA_1_230': 1675.0, 'newveh_ShelterA_2_238_36': 1676.0, 'newveh_ShelterA_2_239_37': 1681.0, 'init_ShelterA_1_231': 1684.0, 'init_ShelterA_1_232': 1693.0, 'newveh_ShelterA_2_235_35': 1699.0, 'init_ShelterA_1_233': 1702.0, 'newveh_ShelterA_2_228_34': 1706.0, 'init_ShelterA_1_234': 1711.0, 'newveh_ShelterA_2_226_33': 1712.0, 'init_ShelterA_1_237': 1720.0, 'newveh_ShelterA_2_224_32': 1722.0, 'init_ShelterA_1_240': 1729.0, 'newveh_ShelterA_2_222_31': 1733.0, 'init_ShelterA_1_274': 1736.0, 'init_ShelterA_1_276': 1738.0, 'newveh_ShelterA_1_218_27': 1738.0, 'init_ShelterA_1_277': 1740.0, 'init_ShelterA_1_278': 1743.0, 'init_ShelterA_1_280': 1745.0, 'init_ShelterA_1_253': 1747.0, 'init_ShelterA_1_284': 1748.0, 'init_ShelterA_1_285': 1751.0, 'init_ShelterA_1_260': 1755.0, 'newveh_ShelterA_2_259_39': 1760.0, 'newveh_ShelterA_1_223_28': 1764.0, 'newveh_ShelterA_2_247_40': 1766.0, 'newveh_ShelterA_2_262_49': 1772.0, 'init_ShelterA_1_263': 1773.0, 'newveh_ShelterA_2_261_48': 1777.0, 'newveh_ShelterA_1_225_29': 1782.0, 'newveh_ShelterA_2_257_47': 1786.0, 'newveh_ShelterA_2_254_46': 1790.0, 'init_ShelterA_1_264': 1791.0, 'newveh_ShelterA_2_252_45': 1794.0, 'init_ShelterA_1_265': 1800.0, 'newveh_ShelterA_2_251_44': 1806.0, 'init_ShelterA_1_266': 1809.0, 'init_ShelterA_1_267': 1818.0, 'newveh_ShelterA_2_250_43': 1818.0, 'init_ShelterA_1_268': 1827.0, 'init_ShelterA_1_269': 1835.0, 'newveh_ShelterA_2_249_42': 1839.0, 'init_ShelterA_1_270': 1844.0, 'newveh_ShelterA_2_248_41': 1849.0, 'init_ShelterA_1_292': 1851.0, 'newveh_ShelterA_1_243_38': 1852.0, 'init_ShelterA_1_295': 1853.0, 'init_ShelterA_1_307': 1855.0, 'init_ShelterA_1_275': 1861.0, 'init_ShelterA_2_279': 1863.0, 'newveh_ShelterA_2_273_53': 1868.0, 'init_ShelterA_1_281': 1873.0, 'newveh_ShelterA_2_271_52': 1876.0, 'init_ShelterA_1_316': 1878.0, 'init_ShelterA_1_282': 1882.0, 'newveh_ShelterA_2_310_85': 1888.0, 'init_ShelterA_1_283': 1891.0, 'newveh_ShelterA_2_315_87': 1892.0, 'init_ShelterA_2_287': 1893.0, 'newveh_ShelterA_2_313_86': 1897.0, 'init_ShelterA_1_293': 1903.0, 'newveh_ShelterA_2_339_95': 1906.0, 'init_ShelterA_1_294': 1912.0, 'newveh_ShelterA_2_336_94': 1918.0, 'init_ShelterA_1_296': 1921.0, 'init_ShelterA_1_305': 1930.0, 'newveh_ShelterA_2_344_96': 1935.0, 'init_ShelterA_1_317': 1938.0, 'init_ShelterA_1_306': 1939.0, 'init_ShelterA_1_318': 1940.0, 'init_ShelterA_1_319': 1942.0, 'init_ShelterA_1_321': 1944.0, 'init_ShelterA_1_322': 1947.0, 'newveh_ShelterA_1_272_51': 1948.0, 'init_ShelterA_1_323': 1950.0, 'init_ShelterA_2_314': 1951.0, 'init_ShelterA_1_332': 1953.0, 'init_ShelterA_2_320': 1953.0, 'init_ShelterA_1_333': 1956.0, 'init_ShelterA_1_335': 1959.0, 'init_ShelterA_1_343': 1962.0, 'init_ShelterA_1_330': 1963.0, 'newveh_ShelterA_2_291_56': 1969.0, 'init_ShelterA_1_337': 1973.0, 'newveh_ShelterA_2_290_55': 1974.0, 'newveh_ShelterA_2_289_54': 1979.0, 'init_ShelterA_1_340': 1982.0, 'newveh_ShelterA_2_356_104': 1983.0, 'init_ShelterA_1_345': 1992.0, 'newveh_ShelterA_2_286_57': 1999.0, 'init_ShelterA_1_346': 2001.0, 'newveh_ShelterA_2_288_58': 2004.0, 'init_ShelterA_1_349': 2006.0, 'init_ShelterA_1_347': 2010.0, 'init_ShelterA_1_348': 2020.0, 'init_ShelterA_1_351': 2029.0, 'init_ShelterA_1_352': 2038.0, 'init_ShelterA_1_353': 2048.0, 'init_ShelterA_1_355': 2057.0, 'init_ShelterA_1_357': 2066.0, 'init_ShelterA_1_359': 2075.0, 'init_ShelterA_1_360': 2084.0, 'init_ShelterA_1_361': 2093.0, 'init_ShelterA_1_362': 2102.0, 'newveh_ShelterA_2_308_59': 2104.0, 'newveh_ShelterA_2_309_60': 2110.0, 'init_ShelterA_1_363': 2111.0, 'newveh_ShelterA_2_297_61': 2115.0, 'init_ShelterA_1_364': 2120.0, 'newveh_ShelterA_2_312_70': 2122.0, 'newveh_ShelterA_2_311_69': 2127.0, 'init_ShelterA_1_365': 2128.0, 'init_ShelterA_1_366': 2136.0, 'newveh_ShelterA_2_304_68': 2140.0, 'init_ShelterA_1_367': 2144.0, 'newveh_ShelterA_2_303_67': 2147.0, 'init_ShelterA_1_374': 2153.0, 'newveh_ShelterA_2_302_66': 2153.0, 'newveh_ShelterA_2_301_65': 2158.0, 'init_ShelterA_1_375': 2162.0, 'newveh_ShelterA_2_300_64': 2166.0, 'init_ShelterA_1_376': 2171.0, 'newveh_ShelterA_2_299_63': 2171.0, 'newveh_ShelterA_2_298_62': 2175.0, 'init_ShelterA_1_377': 2180.0, 'init_ShelterA_1_378': 2190.0, 'init_ShelterA_1_379': 2199.0, 'init_ShelterA_1_382': 2208.0, 'init_ShelterA_1_383': 2217.0, 'init_ShelterA_1_384': 2226.0, 'init_ShelterA_1_387': 2235.0, 'init_ShelterA_1_388': 2244.0, 'init_ShelterA_1_390': 2253.0, 'init_ShelterA_1_391': 2262.0, 'newveh_ShelterA_2_324_74': 2268.0, 'init_ShelterA_1_392': 2271.0, 'newveh_ShelterA_2_338_73': 2274.0, 'init_ShelterA_1_394': 2280.0, 'newveh_ShelterA_2_326_75': 2284.0, 'init_ShelterA_1_395': 2289.0, 'newveh_ShelterA_1_325_71': 2297.0, 'newveh_ShelterA_2_327_76': 2302.0, 'newveh_ShelterA_1_334_72': 2306.0, 'newveh_ShelterA_2_328_77': 2311.0, 'init_ShelterA_1_397': 2315.0, 'init_ShelterA_2_398': 2317.0, 'newveh_ShelterA_2_331_79': 2317.0, 'newveh_ShelterA_2_329_78': 2324.0, 'newveh_ShelterA_1_341_80': 2327.0, 'newveh_ShelterA_2_368_88': 2332.0, 'newveh_ShelterA_1_342_81': 2334.0, 'newveh_ShelterA_1_358_82': 2339.0, 'newveh_ShelterA_2_373_92': 2340.0, 'newveh_ShelterA_1_385_98': 2344.0, 'newveh_ShelterA_2_372_91': 2346.0, 'newveh_ShelterA_1_381_97': 2349.0, 'newveh_ShelterA_2_393_99': 2353.0, 'newveh_ShelterA_2_354_84': 2358.0, 'newveh_ShelterA_2_350_83': 2362.0, 'newveh_ShelterA_2_369_89': 2374.0, 'newveh_ShelterA_2_370_90': 2381.0, 'newveh_ShelterA_2_371_93': 2387.0, 'newveh_ShelterA_2_380_100': 2392.0, 'newveh_ShelterA_2_389_102': 2399.0, 'newveh_ShelterA_2_386_101': 2407.0, 'newveh_ShelterA_2_396_103': 2411.0, 'newveh_ShelterA_2_399_105': 2416.0}
vehicle_abandant_time_by_pedestrianID_dict:{}
walking_distance_by_pedestrianID_dict:{}
route_change_time_by_vehID_dict:{'init_ShelterA_2_50': 420.0, 'init_ShelterA_2_53': 420.0, 'init_ShelterA_2_58': 420.0, 'init_ShelterA_1_55': 430.0, 'init_ShelterA_2_100': 620.0, 'init_ShelterA_1_102': 640.0, 'init_ShelterA_1_106': 660.0, 'init_ShelterA_1_108': 670.0, 'init_ShelterA_1_109': 670.0, 'init_ShelterA_1_104': 680.0, 'init_ShelterA_2_121': 720.0, 'init_ShelterA_1_120': 730.0, 'init_ShelterA_1_122': 730.0, 'init_ShelterA_2_114': 730.0, 'init_ShelterA_1_118': 740.0, 'init_ShelterA_1_183': 810.0, 'init_ShelterA_1_186': 810.0, 'init_ShelterA_1_187': 810.0, 'init_ShelterA_1_190': 810.0, 'init_ShelterA_1_191': 810.0, 'init_ShelterA_1_192': 810.0, 'init_ShelterA_1_193': 810.0, 'init_ShelterA_1_194': 810.0, 'init_ShelterA_1_195': 810.0, 'init_ShelterA_1_196': 810.0, 'init_ShelterA_1_197': 810.0, 'init_ShelterA_1_198': 810.0, 'init_ShelterA_1_199': 810.0, 'init_ShelterA_1_200': 810.0, 'init_ShelterA_1_201': 810.0, 'init_ShelterA_1_202': 810.0, 'init_ShelterA_1_203': 810.0, 'init_ShelterA_1_204': 810.0, 'init_ShelterA_1_205': 810.0, 'init_ShelterA_1_206': 810.0, 'init_ShelterA_1_207': 810.0, 'init_ShelterA_1_208': 810.0, 'init_ShelterA_1_209': 810.0, 'init_ShelterA_2_184': 810.0, 'init_ShelterA_2_185': 810.0, 'init_ShelterA_2_188': 810.0, 'init_ShelterA_2_189': 810.0, 'init_ShelterA_2_142': 830.0, 'init_ShelterA_2_143': 830.0, 'init_ShelterA_1_138': 840.0, 'init_ShelterA_1_140': 840.0, 'init_ShelterA_1_144': 840.0, 'init_ShelterA_1_145': 840.0, 'init_ShelterA_1_151': 860.0, 'init_ShelterA_2_147': 860.0, 'init_ShelterA_1_141': 870.0, 'init_ShelterA_1_148': 870.0, 'init_ShelterA_1_162': 930.0, 'init_ShelterA_2_218': 930.0, 'init_ShelterA_2_172': 950.0, 'init_ShelterA_2_223': 960.0, 'init_ShelterA_2_225': 970.0, 'init_ShelterA_1_221': 990.0, 'init_ShelterA_1_222': 990.0, 'init_ShelterA_1_224': 990.0, 'init_ShelterA_1_226': 990.0, 'init_ShelterA_1_228': 990.0, 'init_ShelterA_1_235': 990.0, 'init_ShelterA_1_238': 990.0, 'init_ShelterA_1_239': 990.0, 'init_ShelterA_2_243': 1000.0, 'init_ShelterA_2_214': 1030.0, 'init_ShelterA_1_212': 1040.0, 'init_ShelterA_1_180': 1050.0, 'init_ShelterA_1_181': 1050.0, 'init_ShelterA_1_211': 1050.0, 'init_ShelterA_1_259': 1050.0, 'init_ShelterA_1_179': 1060.0, 'init_ShelterA_1_182': 1060.0, 'init_ShelterA_1_213': 1060.0, 'init_ShelterA_1_216': 1060.0, 'init_ShelterA_1_247': 1060.0, 'init_ShelterA_1_248': 1060.0, 'init_ShelterA_1_249': 1060.0, 'init_ShelterA_1_250': 1060.0, 'init_ShelterA_1_251': 1060.0, 'init_ShelterA_1_252': 1060.0, 'init_ShelterA_1_254': 1060.0, 'init_ShelterA_1_257': 1060.0, 'init_ShelterA_1_261': 1060.0, 'init_ShelterA_1_262': 1060.0, 'init_ShelterA_1_176': 1070.0, 'init_ShelterA_2_272': 1120.0, 'init_ShelterA_1_271': 1130.0, 'init_ShelterA_1_273': 1130.0, 'init_ShelterA_2_287': 1210.0, 'init_ShelterA_1_289': 1230.0, 'init_ShelterA_1_290': 1230.0, 'init_ShelterA_1_291': 1230.0, 'init_ShelterA_1_286': 1240.0, 'init_ShelterA_1_288': 1240.0, 'init_ShelterA_1_242': 1290.0, 'init_ShelterA_1_244': 1290.0, 'init_ShelterA_1_246': 1290.0, 'init_ShelterA_1_255': 1290.0, 'init_ShelterA_1_256': 1290.0, 'init_ShelterA_1_258': 1290.0, 'init_ShelterA_1_236': 1300.0, 'init_ShelterA_1_241': 1300.0, 'init_ShelterA_1_245': 1300.0, 'init_ShelterA_1_308': 1310.0, 'init_ShelterA_1_309': 1310.0, 'init_ShelterA_1_297': 1320.0, 'init_ShelterA_1_298': 1320.0, 'init_ShelterA_1_299': 1320.0, 'init_ShelterA_1_300': 1320.0, 'init_ShelterA_1_301': 1320.0, 'init_ShelterA_1_302': 1320.0, 'init_ShelterA_1_303': 1320.0, 'init_ShelterA_1_304': 1320.0, 'init_ShelterA_1_311': 1320.0, 'init_ShelterA_1_312': 1320.0, 'init_ShelterA_2_325': 1390.0, 'init_ShelterA_2_334': 1390.0, 'init_ShelterA_1_338': 1400.0, 'init_ShelterA_1_324': 1410.0, 'init_ShelterA_1_326': 1410.0, 'init_ShelterA_1_327': 1410.0, 'init_ShelterA_1_328': 1410.0, 'init_ShelterA_1_329': 1410.0, 'init_ShelterA_1_331': 1410.0, 'init_ShelterA_2_341': 1410.0, 'init_ShelterA_2_342': 1410.0, 'init_ShelterA_2_279': 1430.0, 'init_ShelterA_1_276': 1440.0, 'init_ShelterA_1_277': 1440.0, 'init_ShelterA_1_285': 1440.0, 'init_ShelterA_1_284': 1450.0, 'init_ShelterA_1_274': 1460.0, 'init_ShelterA_1_280': 1470.0, 'init_ShelterA_1_278': 1480.0, 'init_ShelterA_2_358': 1480.0, 'init_ShelterA_1_350': 1490.0, 'init_ShelterA_1_354': 1490.0, 'init_ShelterA_1_295': 1520.0, 'init_ShelterA_1_307': 1520.0, 'init_ShelterA_1_310': 1520.0, 'init_ShelterA_2_314': 1520.0, 'init_ShelterA_1_292': 1530.0, 'init_ShelterA_1_313': 1530.0, 'init_ShelterA_1_315': 1530.0, 'init_ShelterA_1_368': 1540.0, 'init_ShelterA_1_369': 1540.0, 'init_ShelterA_1_370': 1540.0, 'init_ShelterA_1_372': 1550.0, 'init_ShelterA_1_373': 1550.0, 'init_ShelterA_1_321': 1560.0, 'init_ShelterA_1_323': 1560.0, 'init_ShelterA_1_332': 1560.0, 'init_ShelterA_1_333': 1560.0, 'init_ShelterA_1_335': 1560.0, 'init_ShelterA_1_319': 1570.0, 'init_ShelterA_1_371': 1570.0, 'init_ShelterA_1_316': 1600.0, 'init_ShelterA_1_317': 1600.0, 'init_ShelterA_1_318': 1600.0, 'init_ShelterA_1_322': 1600.0, 'init_ShelterA_2_320': 1600.0, 'init_ShelterA_1_336': 1610.0, 'init_ShelterA_1_339': 1610.0, 'init_ShelterA_1_344': 1620.0, 'init_ShelterA_2_381': 1640.0, 'init_ShelterA_1_349': 1650.0, 'init_ShelterA_2_385': 1650.0, 'init_ShelterA_1_393': 1660.0, 'init_ShelterA_1_380': 1670.0, 'init_ShelterA_1_386': 1670.0, 'init_ShelterA_1_389': 1670.0, 'init_ShelterA_1_396': 1670.0, 'init_ShelterA_1_356': 1710.0, 'init_ShelterA_1_343': 1720.0, 'init_ShelterA_1_399': 1730.0, 'init_ShelterA_2_398': 1950.0}
pedestrian_count:0
route_changed_vehicle_count:178
route_change_event_count:178
rate_vehicle_abandonment:0.00%
wrong_way_driving_count:0
vehicle_abandonment_count:0
normalcy_bias_route_change_count:125
majority_bias_route_change_count:53
lane_changed_vehicle_count:0
info_obtained_lanechange_count:0
elapsed_time_lanechange_count:0
majority_bias_lanechange_count:0

=== Job Result ===
end=2026-07-13T01:24:53+0900
elapsed_seconds=643
exit_code=0
status=SUCCESS
