=== Job Info ===
job_name=va_s2_e1.0_v1.0_r16
host=schubert
pid=106724
scenario=2
early_rate=1.0
v2v_rate=1.0
run_id=16
config=/home/katagi/vehicle-assistant-system/scenarios/JIP/configs/config_scenario_2.toml
output_dir=/home/katagi/vehicle-assistant-system/schubert_logs/va_s2_e1.0_v1.0_r16
start=2026-07-13T00:45:39+0900
python_version=Python 3.12.3
sumo_version=Eclipse SUMO sumo Version v1_23_1+0435-630512a

=== Command ===
cd /home/katagi/vehicle-assistant-system/schubert_logs/va_s2_e1.0_v1.0_r16
PYTHONPATH=/home/katagi/vehicle-assistant-system:/home/katagi/tmp/sumo/tools:/home/katagi/local/sumo/tools:/home/katagi/tmp/sumo/tools:/home/katagi/local/sumo/tools:/home/katagi/tmp/sumo/tools:/home/katagi/local/sumo/tools: python3 -W ignore::UserWarning -m scenarios.JIP.1-1-4.simulation.runner_simulator --nogui /home/katagi/vehicle-assistant-system/scenarios/JIP/configs/config_scenario_2.toml 1.0 1.0
simulation_pid=107209
Step #0.00 (0ms ?*RT. ?UPS, TraCI: 310ms, vehicles TOT 1 ACT 1 BUF 0)                     Step #100.00 (1ms ~= 1000.00*RT, ~26000.00UPS, TraCI: 17ms, vehicles TOT 26 ACT 26 BUF 0) Step #200.00 (0ms ?*RT. ?UPS, TraCI: 37ms, vehicles TOT 51 ACT 51 BUF 0)                  Step #300.00 (0ms ?*RT. ?UPS, TraCI: 56ms, vehicles TOT 77 ACT 77 BUF 0)                  Step #400.00 (0ms ?*RT. ?UPS, TraCI: 770ms, vehicles TOT 104 ACT 104 BUF 0)               Step #500.00 (1ms ~= 1000.00*RT, ~131000.00UPS, TraCI: 1356ms, vehicles TOT 131 ACT 131 BUStep #600.00 (1ms ~= 1000.00*RT, ~158000.00UPS, TraCI: 1316ms, vehicles TOT 158 ACT 158 BUStep #700.00 (1ms ~= 1000.00*RT, ~186000.00UPS, TraCI: 495ms, vehicles TOT 186 ACT 186 BUFStep #800.00 (0ms ?*RT. ?UPS, TraCI: 713ms, vehicles TOT 209 ACT 209 BUF 6)               Step #900.00 (1ms ~= 1000.00*RT, ~219000.00UPS, TraCI: 1676ms, vehicles TOT 250 ACT 219 BUStep #1000.00 (1ms ~= 1000.00*RT, ~226000.00UPS, TraCI: 1643ms, vehicles TOT 270 ACT 226 BStep #1100.00 (1ms ~= 1000.00*RT, ~255000.00UPS, TraCI: 1157ms, vehicles TOT 300 ACT 255 BStep #1200.00 (1ms ~= 1000.00*RT, ~279000.00UPS, TraCI: 1095ms, vehicles TOT 336 ACT 279 BStep #1300.00 (1ms ~= 1000.00*RT, ~298000.00UPS, TraCI: 1459ms, vehicles TOT 368 ACT 298 BStep #1400.00 (1ms ~= 1000.00*RT, ~319000.00UPS, TraCI: 3100ms, vehicles TOT 401 ACT 319 BStep #1500.00 (1ms ~= 1000.00*RT, ~328000.00UPS, TraCI: 1682ms, vehicles TOT 427 ACT 328 BStep #1600.00 (1ms ~= 1000.00*RT, ~356000.00UPS, TraCI: 1898ms, vehicles TOT 456 ACT 356 BStep #1700.00 (1ms ~= 1000.00*RT, ~385000.00UPS, TraCI: 1787ms, vehicles TOT 497 ACT 385 BStep #1800.00 (1ms ~= 1000.00*RT, ~400000.00UPS, TraCI: 1364ms, vehicles TOT 518 ACT 400 BStep #1900.00 (1ms ~= 1000.00*RT, ~400000.00UPS, TraCI: 1726ms, vehicles TOT 518 ACT 400 BStep #2000.00 (1ms ~= 1000.00*RT, ~400000.00UPS, TraCI: 1129ms, vehicles TOT 518 ACT 400 BStep #2100.00 (0ms ?*RT. ?UPS, TraCI: 787ms, vehicles TOT 518 ACT 400 BUF 0)              Step #2200.00 (0ms ?*RT. ?UPS, TraCI: 99ms, vehicles TOT 518 ACT 400 BUF 0)               Step #2300.00 (0ms ?*RT. ?UPS, TraCI: 91ms, vehicles TOT 518 ACT 400 BUF 0)               Step #2400.00 (0ms ?*RT. ?UPS, TraCI: 93ms, vehicles TOT 518 ACT 400 BUF 0)               Step #2500.00 (0ms ?*RT. ?UPS, TraCI: 79ms, vehicles TOT 518 ACT 400 BUF 0)               Step #2600.00 (0ms ?*RT. ?UPS, TraCI: 78ms, vehicles TOT 518 ACT 400 BUF 0)               Step #2700.00 (0ms ?*RT. ?UPS, TraCI: 76ms, vehicles TOT 518 ACT 400 BUF 0)               Step #2800.00 (0ms ?*RT. ?UPS, TraCI: 75ms, vehicles TOT 518 ACT 400 BUF 0)               Step #2900.00 (0ms ?*RT. ?UPS, TraCI: 79ms, vehicles TOT 518 ACT 400 BUF 0)               Step #3000.00 (1ms ~= 1000.00*RT, ~400000.00UPS, TraCI: 76ms, vehicles TOT 518 ACT 400 BUF
 Retrying in 1 seconds
出現数: {'A1': 368, 'A2': 32}
割合:
  Total: 400
  A1: 368 (92.00%)
  A2: 32 (8.00%)
  B1: 0 (0.00%)
  B2: 0 (0.00%)
mean elapsed_time: 545.93
OK all vehs arrived 
平均渋滞継続時間: 450.59秒
OK all vehicle abandonment were detected
266
134
===== Simlation Result Summary =====
avg_congestion_duration: 450.59 
arrival_time_by_vehID_dict:{'init_ShelterA_1_0': 216.0, 'init_ShelterA_1_2': 224.0, 'init_ShelterA_1_3': 229.0, 'init_ShelterA_1_4': 233.0, 'init_ShelterA_1_5': 240.0, 'init_ShelterA_1_6': 284.0, 'init_ShelterA_1_7': 291.0, 'init_ShelterA_1_8': 296.0, 'init_ShelterA_1_9': 302.0, 'init_ShelterA_2_1': 302.0, 'init_ShelterA_1_12': 307.0, 'init_ShelterA_1_14': 313.0, 'init_ShelterA_1_16': 318.0, 'init_ShelterA_1_18': 323.0, 'init_ShelterA_1_19': 330.0, 'init_ShelterA_1_20': 334.0, 'init_ShelterA_1_21': 339.0, 'init_ShelterA_1_22': 374.0, 'init_ShelterA_1_23': 380.0, 'init_ShelterA_1_24': 386.0, 'init_ShelterA_2_10': 387.0, 'init_ShelterA_1_25': 391.0, 'init_ShelterA_2_11': 392.0, 'init_ShelterA_1_26': 397.0, 'init_ShelterA_1_27': 403.0, 'init_ShelterA_2_13': 407.0, 'init_ShelterA_1_28': 410.0, 'init_ShelterA_2_15': 413.0, 'init_ShelterA_1_29': 417.0, 'init_ShelterA_2_17': 417.0, 'init_ShelterA_1_30': 425.0, 'init_ShelterA_1_31': 434.0, 'init_ShelterA_1_32': 443.0, 'init_ShelterA_1_33': 452.0, 'init_ShelterA_1_34': 461.0, 'init_ShelterA_1_35': 470.0, 'init_ShelterA_1_36': 479.0, 'init_ShelterA_1_37': 489.0, 'init_ShelterA_2_38': 491.0, 'init_ShelterA_1_39': 501.0, 'init_ShelterA_1_40': 511.0, 'init_ShelterA_1_42': 521.0, 'init_ShelterA_2_43': 523.0, 'init_ShelterA_1_44': 533.0, 'init_ShelterA_1_41': 543.0, 'init_ShelterA_1_48': 543.0, 'init_ShelterA_2_50': 545.0, 'init_ShelterA_2_51': 548.0, 'init_ShelterA_1_45': 554.0, 'init_ShelterA_1_53': 556.0, 'init_ShelterA_2_56': 559.0, 'init_ShelterA_1_57': 566.0, 'init_ShelterA_2_58': 568.0, 'init_ShelterA_1_59': 576.0, 'init_ShelterA_1_46': 578.0, 'init_ShelterA_1_60': 582.0, 'init_ShelterA_1_47': 583.0, 'init_ShelterA_1_49': 585.0, 'init_ShelterA_1_52': 588.0, 'init_ShelterA_1_54': 591.0, 'init_ShelterA_1_61': 591.0, 'init_ShelterA_1_62': 598.0, 'init_ShelterA_1_63': 605.0, 'init_ShelterA_1_64': 609.0, 'init_ShelterA_1_67': 613.0, 'init_ShelterA_1_55': 635.0, 'init_ShelterA_1_74': 644.0, 'init_ShelterA_1_65': 648.0, 'init_ShelterA_1_75': 652.0, 'init_ShelterA_1_66': 661.0, 'init_ShelterA_1_82': 662.0, 'init_ShelterA_1_68': 663.0, 'init_ShelterA_1_69': 666.0, 'init_ShelterA_1_70': 673.0, 'init_ShelterA_1_71': 675.0, 'init_ShelterA_1_83': 677.0, 'init_ShelterA_1_86': 681.0, 'init_ShelterA_2_88': 684.0, 'init_ShelterA_1_72': 724.0, 'init_ShelterA_1_73': 728.0, 'init_ShelterA_1_89': 731.0, 'init_ShelterA_1_90': 736.0, 'init_ShelterA_1_76': 742.0, 'init_ShelterA_1_77': 744.0, 'init_ShelterA_1_91': 746.0, 'init_ShelterA_2_92': 748.0, 'init_ShelterA_1_93': 753.0, 'init_ShelterA_1_78': 760.0, 'init_ShelterA_1_79': 762.0, 'init_ShelterA_1_80': 765.0, 'init_ShelterA_1_81': 768.0, 'init_ShelterA_1_84': 771.0, 'init_ShelterA_1_85': 774.0, 'init_ShelterA_1_87': 777.0, 'init_ShelterA_2_107': 814.0, 'init_ShelterA_2_109': 816.0, 'init_ShelterA_1_94': 834.0, 'init_ShelterA_1_112': 842.0, 'init_ShelterA_1_95': 845.0, 'init_ShelterA_1_96': 847.0, 'init_ShelterA_1_114': 848.0, 'init_ShelterA_1_97': 851.0, 'init_ShelterA_1_116': 852.0, 'init_ShelterA_1_98': 853.0, 'init_ShelterA_1_99': 855.0, 'init_ShelterA_1_100': 860.0, 'init_ShelterA_1_101': 862.0, 'init_ShelterA_1_102': 865.0, 'init_ShelterA_1_103': 868.0, 'init_ShelterA_1_104': 870.0, 'init_ShelterA_1_105': 876.0, 'init_ShelterA_1_106': 903.0, 'init_ShelterA_1_125': 919.0, 'init_ShelterA_1_108': 933.0, 'init_ShelterA_1_110': 935.0, 'init_ShelterA_1_132': 935.0, 'init_ShelterA_1_111': 937.0, 'init_ShelterA_2_136': 937.0, 'init_ShelterA_1_113': 939.0, 'init_ShelterA_1_115': 943.0, 'init_ShelterA_1_117': 946.0, 'init_ShelterA_1_118': 948.0, 'init_ShelterA_1_137': 949.0, 'init_ShelterA_1_119': 951.0, 'init_ShelterA_1_120': 955.0, 'init_ShelterA_1_121': 958.0, 'init_ShelterA_1_122': 960.0, 'init_ShelterA_1_141': 1008.0, 'init_ShelterA_1_123': 1011.0, 'init_ShelterA_1_124': 1013.0, 'init_ShelterA_1_142': 1013.0, 'init_ShelterA_1_126': 1015.0, 'init_ShelterA_2_145': 1016.0, 'init_ShelterA_1_127': 1017.0, 'init_ShelterA_1_128': 1019.0, 'init_ShelterA_1_129': 1023.0, 'init_ShelterA_1_130': 1032.0, 'init_ShelterA_1_131': 1034.0, 'init_ShelterA_1_133': 1039.0, 'init_ShelterA_1_134': 1041.0, 'init_ShelterA_1_135': 1043.0, 'init_ShelterA_1_138': 1045.0, 'init_ShelterA_1_139': 1048.0, 'init_ShelterA_2_158': 1086.0, 'init_ShelterA_1_162': 1105.0, 'init_ShelterA_1_140': 1112.0, 'init_ShelterA_1_143': 1114.0, 'init_ShelterA_1_164': 1114.0, 'init_ShelterA_1_144': 1116.0, 'init_ShelterA_2_166': 1116.0, 'init_ShelterA_1_146': 1119.0, 'init_ShelterA_1_147': 1122.0, 'init_ShelterA_1_168': 1124.0, 'init_ShelterA_1_148': 1125.0, 'init_ShelterA_1_149': 1128.0, 'init_ShelterA_1_171': 1128.0, 'init_ShelterA_1_150': 1130.0, 'init_ShelterA_1_151': 1134.0, 'init_ShelterA_1_152': 1136.0, 'init_ShelterA_1_153': 1139.0, 'init_ShelterA_1_154': 1142.0, 'init_ShelterA_1_155': 1145.0, 'init_ShelterA_1_156': 1148.0, 'init_ShelterA_1_157': 1164.0, 'init_ShelterA_2_173': 1164.0, 'init_ShelterA_1_159': 1181.0, 'init_ShelterA_1_160': 1193.0, 'init_ShelterA_1_161': 1195.0, 'init_ShelterA_1_163': 1208.0, 'init_ShelterA_1_177': 1212.0, 'init_ShelterA_1_178': 1218.0, 'init_ShelterA_1_165': 1223.0, 'init_ShelterA_1_179': 1224.0, 'init_ShelterA_1_167': 1225.0, 'init_ShelterA_1_181': 1231.0, 'init_ShelterA_1_183': 1235.0, 'init_ShelterA_1_169': 1239.0, 'init_ShelterA_1_184': 1239.0, 'init_ShelterA_1_170': 1241.0, 'init_ShelterA_1_172': 1243.0, 'init_ShelterA_1_174': 1276.0, 'init_ShelterA_1_175': 1278.0, 'init_ShelterA_1_176': 1279.0, 'init_ShelterA_1_180': 1304.0, 'init_ShelterA_1_182': 1306.0, 'init_ShelterA_1_207': 1308.0, 'init_ShelterA_1_208': 1310.0, 'init_ShelterA_1_209': 1313.0, 'init_ShelterA_1_210': 1315.0, 'init_ShelterA_1_211': 1364.0, 'init_ShelterA_1_212': 1366.0, 'init_ShelterA_1_213': 1368.0, 'init_ShelterA_1_214': 1380.0, 'init_ShelterA_1_215': 1383.0, 'init_ShelterA_1_216': 1385.0, 'init_ShelterA_1_217': 1387.0, 'newveh_ShelterA_2_185_0': 1406.0, 'newveh_ShelterA_2_206_21': 1415.0, 'newveh_ShelterA_2_205_20': 1419.0, 'newveh_ShelterA_2_204_19': 1431.0, 'newveh_ShelterA_2_203_18': 1439.0, 'newveh_ShelterA_2_202_17': 1444.0, 'newveh_ShelterA_2_201_16': 1452.0, 'newveh_ShelterA_2_200_15': 1457.0, 'newveh_ShelterA_2_199_14': 1461.0, 'newveh_ShelterA_1_226_30': 1462.0, 'newveh_ShelterA_2_198_13': 1475.0, 'init_ShelterA_1_241': 1477.0, 'newveh_ShelterA_2_197_12': 1481.0, 'init_ShelterA_1_245': 1486.0, 'newveh_ShelterA_2_196_11': 1486.0, 'init_ShelterA_1_246': 1490.0, 'newveh_ShelterA_2_195_10': 1495.0, 'newveh_ShelterA_2_194_9': 1501.0, 'newveh_ShelterA_2_193_8': 1507.0, 'newveh_ShelterA_2_192_7': 1512.0, 'newveh_ShelterA_2_191_6': 1517.0, 'newveh_ShelterA_2_190_5': 1523.0, 'newveh_ShelterA_2_189_4': 1529.0, 'newveh_ShelterA_2_188_3': 1535.0, 'init_ShelterA_1_248': 1544.0, 'newveh_ShelterA_2_187_2': 1544.0, 'init_ShelterA_1_249': 1550.0, 'newveh_ShelterA_2_186_1': 1550.0, 'init_ShelterA_1_231': 1552.0, 'init_ShelterA_1_250': 1555.0, 'init_ShelterA_1_251': 1561.0, 'newveh_ShelterA_2_220_24': 1561.0, 'init_ShelterA_1_253': 1567.0, 'newveh_ShelterA_2_219_23': 1569.0, 'init_ShelterA_1_254': 1573.0, 'newveh_ShelterA_2_252_69': 1577.0, 'init_ShelterA_1_256': 1579.0, 'init_ShelterA_1_258': 1584.0, 'newveh_ShelterA_2_218_22': 1586.0, 'init_ShelterA_1_261': 1588.0, 'newveh_ShelterA_2_221_25': 1595.0, 'newveh_ShelterA_2_222_26': 1600.0, 'newveh_ShelterA_2_225_29': 1608.0, 'newveh_ShelterA_2_224_28': 1615.0, 'newveh_ShelterA_2_223_27': 1624.0, 'init_ShelterA_1_242': 1626.0, 'init_ShelterA_1_265': 1633.0, 'newveh_ShelterA_2_229_33': 1635.0, 'newveh_ShelterA_2_228_32': 1644.0, 'init_ShelterA_1_266': 1647.0, 'init_ShelterA_1_267': 1653.0, 'newveh_ShelterA_2_227_31': 1654.0, 'init_ShelterA_1_244': 1656.0, 'init_ShelterA_1_270': 1659.0, 'init_ShelterA_1_275': 1665.0, 'newveh_ShelterA_2_230_34': 1666.0, 'init_ShelterA_1_247': 1668.0, 'init_ShelterA_1_279': 1671.0, 'init_ShelterA_1_283': 1677.0, 'newveh_ShelterA_2_243_68': 1678.0, 'init_ShelterA_1_295': 1684.0, 'newveh_ShelterA_2_274_79': 1688.0, 'init_ShelterA_1_255': 1690.0, 'init_ShelterA_1_296': 1691.0, 'init_ShelterA_1_300': 1695.0, 'init_ShelterA_1_306': 1700.0, 'newveh_ShelterA_2_232_35': 1700.0, 'newveh_ShelterA_2_234_40': 1710.0, 'newveh_ShelterA_2_240_39': 1720.0, 'init_ShelterA_1_308': 1727.0, 'newveh_ShelterA_2_239_38': 1729.0, 'newveh_ShelterA_1_269_46': 1733.0, 'newveh_ShelterA_2_237_37': 1739.0, 'newveh_ShelterA_2_233_36': 1748.0, 'newveh_ShelterA_2_235_41': 1755.0, 'newveh_ShelterA_2_236_42': 1764.0, 'newveh_ShelterA_2_238_43': 1773.0, 'init_ShelterA_1_278': 1775.0, 'init_ShelterA_1_284': 1778.0, 'newveh_ShelterA_2_257_44': 1786.0, 'init_ShelterA_1_299': 1789.0, 'init_ShelterA_1_307': 1791.0, 'newveh_ShelterA_2_297_90': 1798.0, 'newveh_ShelterA_2_282_89': 1803.0, 'newveh_ShelterA_2_281_88': 1810.0, 'init_ShelterA_1_324': 1817.0, 'newveh_ShelterA_2_280_87': 1817.0, 'newveh_ShelterA_2_301_91': 1826.0, 'init_ShelterA_1_326': 1827.0, 'init_ShelterA_2_328': 1829.0, 'newveh_ShelterA_2_302_92': 1834.0, 'init_ShelterA_1_329': 1839.0, 'newveh_ShelterA_2_305_95': 1843.0, 'init_ShelterA_1_330': 1846.0, 'newveh_ShelterA_2_304_94': 1851.0, 'init_ShelterA_1_331': 1854.0, 'newveh_ShelterA_2_303_93': 1862.0, 'init_ShelterA_1_332': 1863.0, 'init_ShelterA_1_309': 1864.0, 'init_ShelterA_1_310': 1866.0, 'init_ShelterA_1_338': 1871.0, 'newveh_ShelterA_2_262_45': 1875.0, 'init_ShelterA_1_340': 1877.0, 'init_ShelterA_1_341': 1881.0, 'newveh_ShelterA_2_259_47': 1885.0, 'newveh_ShelterA_1_291_60': 1886.0, 'newveh_ShelterA_2_273_54': 1894.0, 'newveh_ShelterA_2_272_53': 1904.0, 'init_ShelterA_1_342': 1905.0, 'init_ShelterA_1_344': 1909.0, 'newveh_ShelterA_2_271_52': 1913.0, 'newveh_ShelterA_2_268_51': 1923.0, 'newveh_ShelterA_1_298_67': 1925.0, 'init_ShelterA_2_348': 1927.0, 'newveh_ShelterA_2_264_50': 1932.0, 'init_ShelterA_1_352': 1935.0, 'init_ShelterA_1_354': 1942.0, 'newveh_ShelterA_2_263_49': 1942.0, 'init_ShelterA_1_355': 1947.0, 'init_ShelterA_1_357': 1951.0, 'newveh_ShelterA_2_277_56': 1952.0, 'newveh_ShelterA_2_276_55': 1962.0, 'init_ShelterA_2_358': 1978.0, 'newveh_ShelterA_2_260_48': 1983.0, 'init_ShelterA_1_320': 1985.0, 'init_ShelterA_1_321': 1988.0, 'init_ShelterA_1_322': 1989.0, 'init_ShelterA_1_323': 1991.0, 'init_ShelterA_1_325': 1993.0, 'newveh_ShelterA_2_285_57': 2001.0, 'newveh_ShelterA_2_287_61': 2006.0, 'init_ShelterA_1_363': 2007.0, 'newveh_ShelterA_2_292_59': 2014.0, 'init_ShelterA_1_365': 2015.0, 'init_ShelterA_1_368': 2019.0, 'newveh_ShelterA_2_353_111': 2024.0, 'newveh_ShelterA_2_351_110': 2032.0, 'newveh_ShelterA_2_349_109': 2039.0, 'newveh_ShelterA_2_286_58': 2047.0, 'init_ShelterA_1_343': 2050.0, 'newveh_ShelterA_2_288_62': 2058.0, 'newveh_ShelterA_2_289_63': 2068.0, 'newveh_ShelterA_2_290_64': 2077.0, 'newveh_ShelterA_2_293_65': 2087.0, 'init_ShelterA_1_374': 2095.0, 'newveh_ShelterA_2_294_66': 2096.0, 'init_ShelterA_1_350': 2099.0, 'init_ShelterA_1_356': 2101.0, 'init_ShelterA_1_375': 2101.0, 'init_ShelterA_1_378': 2107.0, 'newveh_ShelterA_2_372_117': 2110.0, 'init_ShelterA_1_381': 2112.0, 'init_ShelterA_1_383': 2118.0, 'init_ShelterA_1_384': 2125.0, 'newveh_ShelterA_2_371_116': 2130.0, 'init_ShelterA_1_385': 2132.0, 'init_ShelterA_1_359': 2133.0, 'init_ShelterA_1_360': 2135.0, 'init_ShelterA_1_361': 2137.0, 'init_ShelterA_1_362': 2139.0, 'init_ShelterA_1_388': 2139.0, 'init_ShelterA_1_364': 2141.0, 'init_ShelterA_1_367': 2143.0, 'init_ShelterA_1_389': 2146.0, 'init_ShelterA_1_392': 2150.0, 'newveh_ShelterA_2_316_71': 2154.0, 'init_ShelterA_1_393': 2155.0, 'newveh_ShelterA_2_315_70': 2160.0, 'init_ShelterA_1_370': 2162.0, 'init_ShelterA_1_373': 2164.0, 'newveh_ShelterA_2_311_72': 2173.0, 'init_ShelterA_1_396': 2175.0, 'newveh_ShelterA_1_337_81': 2179.0, 'newveh_ShelterA_2_319_78': 2180.0, 'newveh_ShelterA_2_318_77': 2185.0, 'newveh_ShelterA_2_366_115': 2189.0, 'newveh_ShelterA_1_369_99': 2202.0, 'newveh_ShelterA_2_317_76': 2202.0, 'newveh_ShelterA_1_377_100': 2206.0, 'newveh_ShelterA_2_314_75': 2218.0, 'newveh_ShelterA_2_313_74': 2226.0, 'newveh_ShelterA_2_312_73': 2232.0, 'init_ShelterA_1_394': 2234.0, 'newveh_ShelterA_2_327_82': 2239.0, 'newveh_ShelterA_1_379_102': 2270.0, 'init_ShelterA_1_395': 2278.0, 'newveh_ShelterA_2_333_80': 2296.0, 'newveh_ShelterA_2_335_84': 2306.0, 'newveh_ShelterA_2_334_83': 2313.0, 'newveh_ShelterA_2_336_85': 2321.0, 'newveh_ShelterA_2_339_86': 2325.0, 'newveh_ShelterA_2_347_98': 2330.0, 'newveh_ShelterA_2_346_97': 2338.0, 'newveh_ShelterA_2_345_96': 2344.0, 'newveh_ShelterA_2_387_103': 2352.0, 'newveh_ShelterA_2_390_107': 2356.0, 'newveh_ShelterA_2_380_101': 2361.0, 'newveh_ShelterA_2_397_112': 2378.0, 'newveh_ShelterA_2_391_108': 2386.0, 'newveh_ShelterA_2_386_106': 2390.0, 'newveh_ShelterA_2_382_105': 2396.0, 'newveh_ShelterA_2_376_104': 2406.0, 'newveh_ShelterA_2_399_114': 2412.0, 'newveh_ShelterA_2_398_113': 2416.0}
vehicle_abandant_time_by_pedestrianID_dict:{}
walking_distance_by_pedestrianID_dict:{}
route_change_time_by_vehID_dict:{'init_ShelterA_2_38': 350.0, 'init_ShelterA_2_43': 360.0, 'init_ShelterA_2_50': 360.0, 'init_ShelterA_2_51': 360.0, 'init_ShelterA_1_41': 370.0, 'init_ShelterA_1_45': 370.0, 'init_ShelterA_1_47': 370.0, 'init_ShelterA_1_49': 370.0, 'init_ShelterA_1_52': 370.0, 'init_ShelterA_1_46': 380.0, 'init_ShelterA_1_54': 420.0, 'init_ShelterA_1_55': 420.0, 'init_ShelterA_2_56': 420.0, 'init_ShelterA_2_58': 430.0, 'init_ShelterA_1_65': 460.0, 'init_ShelterA_1_66': 460.0, 'init_ShelterA_1_68': 460.0, 'init_ShelterA_1_69': 460.0, 'init_ShelterA_1_70': 470.0, 'init_ShelterA_1_71': 490.0, 'init_ShelterA_1_72': 490.0, 'init_ShelterA_1_76': 500.0, 'init_ShelterA_1_73': 510.0, 'init_ShelterA_1_78': 510.0, 'init_ShelterA_1_80': 510.0, 'init_ShelterA_1_81': 510.0, 'init_ShelterA_1_77': 520.0, 'init_ShelterA_1_79': 520.0, 'init_ShelterA_1_84': 520.0, 'init_ShelterA_1_85': 520.0, 'init_ShelterA_2_88': 520.0, 'init_ShelterA_1_87': 560.0, 'init_ShelterA_2_92': 570.0, 'init_ShelterA_1_100': 600.0, 'init_ShelterA_1_102': 600.0, 'init_ShelterA_1_94': 600.0, 'init_ShelterA_1_95': 600.0, 'init_ShelterA_1_96': 600.0, 'init_ShelterA_1_97': 600.0, 'init_ShelterA_1_99': 600.0, 'init_ShelterA_1_104': 610.0, 'init_ShelterA_1_105': 610.0, 'init_ShelterA_1_103': 620.0, 'init_ShelterA_1_101': 640.0, 'init_ShelterA_1_98': 640.0, 'init_ShelterA_2_107': 650.0, 'init_ShelterA_1_106': 660.0, 'init_ShelterA_1_108': 670.0, 'init_ShelterA_2_109': 670.0, 'init_ShelterA_1_110': 680.0, 'init_ShelterA_1_111': 680.0, 'init_ShelterA_1_115': 680.0, 'init_ShelterA_1_117': 680.0, 'init_ShelterA_1_118': 680.0, 'init_ShelterA_1_119': 680.0, 'init_ShelterA_1_121': 680.0, 'init_ShelterA_1_113': 690.0, 'init_ShelterA_1_122': 690.0, 'init_ShelterA_1_123': 690.0, 'init_ShelterA_1_124': 690.0, 'init_ShelterA_1_120': 700.0, 'init_ShelterA_1_126': 750.0, 'init_ShelterA_1_127': 750.0, 'init_ShelterA_1_128': 750.0, 'init_ShelterA_1_130': 750.0, 'init_ShelterA_1_131': 750.0, 'init_ShelterA_1_133': 760.0, 'init_ShelterA_1_135': 770.0, 'init_ShelterA_2_136': 770.0, 'init_ShelterA_1_185': 810.0, 'init_ShelterA_1_186': 810.0, 'init_ShelterA_1_187': 810.0, 'init_ShelterA_1_188': 810.0, 'init_ShelterA_1_189': 810.0, 'init_ShelterA_1_190': 810.0, 'init_ShelterA_1_191': 810.0, 'init_ShelterA_1_192': 810.0, 'init_ShelterA_1_193': 810.0, 'init_ShelterA_1_194': 810.0, 'init_ShelterA_1_195': 810.0, 'init_ShelterA_1_196': 810.0, 'init_ShelterA_1_197': 810.0, 'init_ShelterA_1_198': 810.0, 'init_ShelterA_1_199': 810.0, 'init_ShelterA_1_200': 810.0, 'init_ShelterA_1_201': 810.0, 'init_ShelterA_1_202': 810.0, 'init_ShelterA_1_203': 810.0, 'init_ShelterA_1_204': 810.0, 'init_ShelterA_1_205': 810.0, 'init_ShelterA_1_206': 810.0, 'init_ShelterA_1_134': 820.0, 'init_ShelterA_1_129': 830.0, 'init_ShelterA_2_145': 840.0, 'init_ShelterA_1_143': 850.0, 'init_ShelterA_1_144': 850.0, 'init_ShelterA_1_147': 850.0, 'init_ShelterA_1_148': 850.0, 'init_ShelterA_1_149': 850.0, 'init_ShelterA_1_150': 850.0, 'init_ShelterA_1_151': 850.0, 'init_ShelterA_1_153': 850.0, 'init_ShelterA_1_154': 850.0, 'init_ShelterA_1_139': 860.0, 'init_ShelterA_1_140': 860.0, 'init_ShelterA_1_146': 860.0, 'init_ShelterA_1_159': 860.0, 'init_ShelterA_2_158': 860.0, 'init_ShelterA_1_138': 870.0, 'init_ShelterA_1_218': 890.0, 'init_ShelterA_1_219': 890.0, 'init_ShelterA_1_220': 890.0, 'init_ShelterA_1_221': 890.0, 'init_ShelterA_1_222': 890.0, 'init_ShelterA_1_223': 900.0, 'init_ShelterA_1_224': 900.0, 'init_ShelterA_1_225': 900.0, 'init_ShelterA_2_226': 900.0, 'init_ShelterA_1_152': 910.0, 'init_ShelterA_1_155': 910.0, 'init_ShelterA_1_156': 910.0, 'init_ShelterA_1_227': 910.0, 'init_ShelterA_1_228': 910.0, 'init_ShelterA_1_229': 910.0, 'init_ShelterA_1_230': 910.0, 'init_ShelterA_1_161': 930.0, 'init_ShelterA_1_167': 930.0, 'init_ShelterA_2_166': 930.0, 'init_ShelterA_1_169': 940.0, 'init_ShelterA_1_170': 940.0, 'init_ShelterA_1_172': 940.0, 'init_ShelterA_2_173': 940.0, 'init_ShelterA_1_174': 950.0, 'init_ShelterA_1_175': 950.0, 'init_ShelterA_1_176': 950.0, 'init_ShelterA_1_232': 950.0, 'init_ShelterA_1_233': 950.0, 'init_ShelterA_1_237': 950.0, 'init_ShelterA_1_239': 950.0, 'init_ShelterA_1_240': 950.0, 'init_ShelterA_1_234': 960.0, 'init_ShelterA_1_235': 960.0, 'init_ShelterA_1_236': 960.0, 'init_ShelterA_1_238': 960.0, 'init_ShelterA_1_160': 1000.0, 'init_ShelterA_1_165': 1000.0, 'init_ShelterA_1_157': 1010.0, 'init_ShelterA_1_163': 1010.0, 'init_ShelterA_1_257': 1070.0, 'init_ShelterA_1_180': 1090.0, 'init_ShelterA_1_182': 1090.0, 'init_ShelterA_1_208': 1090.0, 'init_ShelterA_1_210': 1090.0, 'init_ShelterA_1_213': 1090.0, 'init_ShelterA_1_214': 1090.0, 'init_ShelterA_1_215': 1090.0, 'init_ShelterA_1_211': 1100.0, 'init_ShelterA_1_217': 1100.0, 'init_ShelterA_1_207': 1110.0, 'init_ShelterA_1_209': 1110.0, 'init_ShelterA_1_212': 1110.0, 'init_ShelterA_1_216': 1110.0, 'init_ShelterA_1_262': 1140.0, 'init_ShelterA_2_269': 1140.0, 'init_ShelterA_1_259': 1150.0, 'init_ShelterA_1_260': 1150.0, 'init_ShelterA_1_263': 1150.0, 'init_ShelterA_1_264': 1150.0, 'init_ShelterA_1_268': 1150.0, 'init_ShelterA_1_271': 1150.0, 'init_ShelterA_1_272': 1150.0, 'init_ShelterA_1_273': 1150.0, 'init_ShelterA_1_276': 1160.0, 'init_ShelterA_1_277': 1160.0, 'init_ShelterA_1_231': 1200.0, 'init_ShelterA_1_242': 1220.0, 'init_ShelterA_1_285': 1220.0, 'init_ShelterA_1_286': 1220.0, 'init_ShelterA_1_292': 1220.0, 'init_ShelterA_2_291': 1220.0, 'init_ShelterA_1_287': 1230.0, 'init_ShelterA_1_288': 1230.0, 'init_ShelterA_1_289': 1230.0, 'init_ShelterA_1_290': 1230.0, 'init_ShelterA_1_293': 1230.0, 'init_ShelterA_1_294': 1230.0, 'init_ShelterA_2_298': 1240.0, 'init_ShelterA_1_243': 1270.0, 'init_ShelterA_1_252': 1270.0, 'init_ShelterA_1_255': 1280.0, 'init_ShelterA_1_315': 1310.0, 'init_ShelterA_1_316': 1310.0, 'init_ShelterA_1_311': 1320.0, 'init_ShelterA_1_312': 1320.0, 'init_ShelterA_1_313': 1320.0, 'init_ShelterA_1_314': 1320.0, 'init_ShelterA_1_317': 1320.0, 'init_ShelterA_1_318': 1320.0, 'init_ShelterA_1_319': 1320.0, 'init_ShelterA_1_244': 1360.0, 'init_ShelterA_1_274': 1360.0, 'init_ShelterA_1_247': 1370.0, 'init_ShelterA_2_328': 1370.0, 'init_ShelterA_1_333': 1400.0, 'init_ShelterA_2_337': 1400.0, 'init_ShelterA_1_327': 1410.0, 'init_ShelterA_1_334': 1420.0, 'init_ShelterA_1_335': 1420.0, 'init_ShelterA_1_336': 1420.0, 'init_ShelterA_1_339': 1420.0, 'init_ShelterA_1_280': 1430.0, 'init_ShelterA_1_281': 1430.0, 'init_ShelterA_1_282': 1430.0, 'init_ShelterA_1_297': 1430.0, 'init_ShelterA_1_301': 1440.0, 'init_ShelterA_1_302': 1440.0, 'init_ShelterA_1_303': 1450.0, 'init_ShelterA_1_304': 1450.0, 'init_ShelterA_1_305': 1450.0, 'init_ShelterA_1_309': 1470.0, 'init_ShelterA_1_345': 1480.0, 'init_ShelterA_1_346': 1480.0, 'init_ShelterA_1_347': 1480.0, 'init_ShelterA_1_320': 1490.0, 'init_ShelterA_1_310': 1520.0, 'init_ShelterA_2_348': 1520.0, 'init_ShelterA_1_278': 1540.0, 'init_ShelterA_1_299': 1540.0, 'init_ShelterA_1_284': 1550.0, 'init_ShelterA_1_307': 1550.0, 'init_ShelterA_2_369': 1570.0, 'init_ShelterA_1_321': 1590.0, 'init_ShelterA_2_377': 1630.0, 'init_ShelterA_1_322': 1650.0, 'init_ShelterA_1_323': 1650.0, 'init_ShelterA_1_325': 1650.0, 'init_ShelterA_1_380': 1650.0, 'init_ShelterA_2_379': 1650.0, 'init_ShelterA_1_387': 1660.0, 'init_ShelterA_1_376': 1670.0, 'init_ShelterA_1_382': 1670.0, 'init_ShelterA_1_386': 1670.0, 'init_ShelterA_1_390': 1670.0, 'init_ShelterA_1_391': 1670.0, 'init_ShelterA_1_343': 1700.0, 'init_ShelterA_1_349': 1700.0, 'init_ShelterA_1_351': 1700.0, 'init_ShelterA_1_353': 1700.0, 'init_ShelterA_1_359': 1730.0, 'init_ShelterA_1_361': 1730.0, 'init_ShelterA_1_397': 1730.0, 'init_ShelterA_1_398': 1730.0, 'init_ShelterA_1_399': 1730.0, 'init_ShelterA_2_358': 1730.0, 'init_ShelterA_1_360': 1740.0, 'init_ShelterA_1_370': 1740.0, 'init_ShelterA_1_356': 1760.0, 'init_ShelterA_1_350': 1770.0, 'init_ShelterA_1_362': 1770.0, 'init_ShelterA_1_367': 1780.0, 'init_ShelterA_1_364': 1790.0, 'init_ShelterA_1_366': 1790.0, 'init_ShelterA_1_371': 1790.0, 'init_ShelterA_1_372': 1790.0, 'init_ShelterA_1_373': 1900.0, 'init_ShelterA_1_394': 1940.0, 'init_ShelterA_1_395': 1940.0}
pedestrian_count:0
route_changed_vehicle_count:267
route_change_event_count:267
rate_vehicle_abandonment:0.00%
wrong_way_driving_count:0
vehicle_abandonment_count:0
normalcy_bias_route_change_count:199
majority_bias_route_change_count:68
lane_changed_vehicle_count:0
info_obtained_lanechange_count:0
elapsed_time_lanechange_count:0
majority_bias_lanechange_count:0

=== Job Result ===
end=2026-07-13T00:52:55+0900
elapsed_seconds=436
exit_code=0
status=SUCCESS
