=== Job Info ===
job_name=va_s5_e1.0_v1.0_r31
host=schubert
pid=117480
scenario=5
early_rate=1.0
v2v_rate=1.0
run_id=31
config=/home/katagi/vehicle-assistant-system/scenarios/JIP/configs/config_scenario_5.toml
output_dir=/home/katagi/vehicle-assistant-system/schubert_logs/va_s5_e1.0_v1.0_r31
start=2026-07-13T01:41:19+0900
python_version=Python 3.12.3
sumo_version=Eclipse SUMO sumo Version v1_23_1+0435-630512a

=== Command ===
cd /home/katagi/vehicle-assistant-system/schubert_logs/va_s5_e1.0_v1.0_r31
PYTHONPATH=/home/katagi/vehicle-assistant-system:/home/katagi/tmp/sumo/tools:/home/katagi/local/sumo/tools:/home/katagi/tmp/sumo/tools:/home/katagi/local/sumo/tools:/home/katagi/tmp/sumo/tools:/home/katagi/local/sumo/tools: python3 -W ignore::UserWarning -m scenarios.JIP.1-1-4.simulation.runner_simulator --nogui /home/katagi/vehicle-assistant-system/scenarios/JIP/configs/config_scenario_5.toml 1.0 1.0
simulation_pid=117500
Step #0.00 (0ms ?*RT. ?UPS, TraCI: 339ms, vehicles TOT 1 ACT 1 BUF 0)                     Step #100.00 (0ms ?*RT. ?UPS, TraCI: 17ms, vehicles TOT 26 ACT 26 BUF 0)                  Step #200.00 (0ms ?*RT. ?UPS, TraCI: 37ms, vehicles TOT 51 ACT 51 BUF 0)                  Step #300.00 (0ms ?*RT. ?UPS, TraCI: 57ms, vehicles TOT 77 ACT 77 BUF 0)                  Step #400.00 (0ms ?*RT. ?UPS, TraCI: 72ms, vehicles TOT 104 ACT 104 BUF 0)                Step #500.00 (1ms ~= 1000.00*RT, ~131000.00UPS, TraCI: 2004ms, vehicles TOT 131 ACT 131 BUStep #600.00 (1ms ~= 1000.00*RT, ~158000.00UPS, TraCI: 1612ms, vehicles TOT 158 ACT 158 BUStep #700.00 (1ms ~= 1000.00*RT, ~186000.00UPS, TraCI: 1214ms, vehicles TOT 186 ACT 186 BUStep #800.00 (0ms ?*RT. ?UPS, TraCI: 1223ms, vehicles TOT 209 ACT 209 BUF 6)              Step #900.00 (1ms ~= 1000.00*RT, ~213000.00UPS, TraCI: 2115ms, vehicles TOT 238 ACT 213 BUStep #1000.00 (1ms ~= 1000.00*RT, ~236000.00UPS, TraCI: 2113ms, vehicles TOT 267 ACT 236 BStep #1100.00 (1ms ~= 1000.00*RT, ~256000.00UPS, TraCI: 779ms, vehicles TOT 296 ACT 256 BUStep #1200.00 (1ms ~= 1000.00*RT, ~276000.00UPS, TraCI: 1534ms, vehicles TOT 325 ACT 276 BStep #1300.00 (1ms ~= 1000.00*RT, ~295000.00UPS, TraCI: 2296ms, vehicles TOT 347 ACT 295 BStep #1400.00 (0ms ?*RT. ?UPS, TraCI: 2546ms, vehicles TOT 365 ACT 311 BUF 89)            Step #1500.00 (1ms ~= 1000.00*RT, ~331000.00UPS, TraCI: 2969ms, vehicles TOT 393 ACT 331 BStep #1600.00 (0ms ?*RT. ?UPS, TraCI: 2837ms, vehicles TOT 428 ACT 361 BUF 39)            Step #1700.00 (1ms ~= 1000.00*RT, ~382000.00UPS, TraCI: 2990ms, vehicles TOT 455 ACT 382 BStep #1800.00 (1ms ~= 1000.00*RT, ~397000.00UPS, TraCI: 2867ms, vehicles TOT 478 ACT 397 BStep #1900.00 (1ms ~= 1000.00*RT, ~400000.00UPS, TraCI: 3074ms, vehicles TOT 483 ACT 400 BStep #2000.00 (0ms ?*RT. ?UPS, TraCI: 2251ms, vehicles TOT 483 ACT 400 BUF 0)             Step #2100.00 (0ms ?*RT. ?UPS, TraCI: 1625ms, vehicles TOT 483 ACT 400 BUF 0)             Step #2200.00 (1ms ~= 1000.00*RT, ~400000.00UPS, TraCI: 1033ms, vehicles TOT 483 ACT 400 BStep #2300.00 (0ms ?*RT. ?UPS, TraCI: 526ms, vehicles TOT 483 ACT 400 BUF 0)              Step #2400.00 (0ms ?*RT. ?UPS, TraCI: 92ms, vehicles TOT 483 ACT 400 BUF 0)               Step #2500.00 (0ms ?*RT. ?UPS, TraCI: 78ms, vehicles TOT 483 ACT 400 BUF 0)               Step #2600.00 (0ms ?*RT. ?UPS, TraCI: 78ms, vehicles TOT 483 ACT 400 BUF 0)               Step #2700.00 (0ms ?*RT. ?UPS, TraCI: 77ms, vehicles TOT 483 ACT 400 BUF 0)               Step #2800.00 (1ms ~= 1000.00*RT, ~400000.00UPS, TraCI: 78ms, vehicles TOT 483 ACT 400 BUFStep #2900.00 (0ms ?*RT. ?UPS, TraCI: 78ms, vehicles TOT 483 ACT 400 BUF 0)               Step #3000.00 (0ms ?*RT. ?UPS, TraCI: 79ms, vehicles TOT 483 ACT 400 BUF 0)               
 Retrying in 1 seconds
出現数: {'A1': 353, 'A2': 47}
割合:
  Total: 400
  A1: 353 (88.25%)
  A2: 47 (11.75%)
  B1: 0 (0.00%)
  B2: 0 (0.00%)
mean elapsed_time: 546.52
OK all vehs arrived 
平均渋滞継続時間: 453.75秒
OK all vehicle abandonment were detected
302
98
===== Simlation Result Summary =====
avg_congestion_duration: 453.75 
arrival_time_by_vehID_dict:{'init_ShelterA_1_0': 216.0, 'init_ShelterA_1_1': 221.0, 'init_ShelterA_1_2': 230.0, 'init_ShelterA_1_3': 237.0, 'init_ShelterA_1_4': 243.0, 'init_ShelterA_1_5': 248.0, 'init_ShelterA_1_6': 252.0, 'init_ShelterA_1_7': 288.0, 'init_ShelterA_1_8': 295.0, 'init_ShelterA_1_9': 301.0, 'init_ShelterA_1_10': 307.0, 'init_ShelterA_1_12': 314.0, 'init_ShelterA_1_13': 321.0, 'init_ShelterA_1_14': 329.0, 'init_ShelterA_1_15': 338.0, 'init_ShelterA_1_16': 347.0, 'init_ShelterA_1_17': 356.0, 'init_ShelterA_1_18': 366.0, 'init_ShelterA_1_19': 375.0, 'init_ShelterA_1_20': 384.0, 'init_ShelterA_1_21': 394.0, 'init_ShelterA_2_11': 400.0, 'init_ShelterA_1_22': 403.0, 'init_ShelterA_1_23': 412.0, 'init_ShelterA_1_26': 422.0, 'init_ShelterA_1_27': 432.0, 'init_ShelterA_1_28': 441.0, 'init_ShelterA_1_29': 451.0, 'init_ShelterA_1_30': 461.0, 'init_ShelterA_1_31': 471.0, 'init_ShelterA_2_24': 479.0, 'init_ShelterA_1_32': 480.0, 'init_ShelterA_2_25': 489.0, 'init_ShelterA_1_35': 490.0, 'init_ShelterA_1_36': 500.0, 'init_ShelterA_2_33': 504.0, 'init_ShelterA_1_37': 509.0, 'init_ShelterA_2_34': 510.0, 'init_ShelterA_2_38': 515.0, 'init_ShelterA_1_39': 519.0, 'init_ShelterA_1_40': 528.0, 'init_ShelterA_1_41': 538.0, 'init_ShelterA_1_42': 547.0, 'init_ShelterA_1_43': 557.0, 'init_ShelterA_1_44': 567.0, 'init_ShelterA_1_45': 576.0, 'init_ShelterA_2_47': 576.0, 'init_ShelterA_2_48': 582.0, 'init_ShelterA_1_46': 586.0, 'init_ShelterA_2_49': 586.0, 'init_ShelterA_1_50': 595.0, 'init_ShelterA_1_51': 605.0, 'init_ShelterA_1_52': 614.0, 'init_ShelterA_1_53': 624.0, 'init_ShelterA_1_54': 633.0, 'init_ShelterA_1_55': 642.0, 'init_ShelterA_1_56': 652.0, 'init_ShelterA_1_57': 661.0, 'init_ShelterA_1_58': 670.0, 'init_ShelterA_1_59': 679.0, 'init_ShelterA_1_67': 679.0, 'init_ShelterA_1_68': 682.0, 'init_ShelterA_1_69': 684.0, 'init_ShelterA_1_60': 689.0, 'init_ShelterA_2_61': 691.0, 'init_ShelterA_1_71': 698.0, 'init_ShelterA_1_73': 700.0, 'init_ShelterA_1_62': 701.0, 'init_ShelterA_2_63': 703.0, 'init_ShelterA_1_75': 712.0, 'init_ShelterA_1_64': 713.0, 'init_ShelterA_1_76': 719.0, 'init_ShelterA_1_65': 723.0, 'init_ShelterA_2_66': 725.0, 'init_ShelterA_1_70': 735.0, 'init_ShelterA_2_72': 738.0, 'init_ShelterA_1_74': 748.0, 'init_ShelterA_1_77': 751.0, 'init_ShelterA_1_79': 753.0, 'init_ShelterA_1_78': 758.0, 'init_ShelterA_2_81': 760.0, 'init_ShelterA_1_82': 770.0, 'init_ShelterA_1_80': 775.0, 'init_ShelterA_1_83': 778.0, 'init_ShelterA_1_85': 780.0, 'init_ShelterA_1_84': 781.0, 'init_ShelterA_1_87': 784.0, 'init_ShelterA_1_89': 787.0, 'init_ShelterA_1_86': 789.0, 'init_ShelterA_1_90': 790.0, 'init_ShelterA_1_88': 799.0, 'init_ShelterA_1_91': 809.0, 'init_ShelterA_1_92': 809.0, 'init_ShelterA_1_93': 811.0, 'init_ShelterA_1_94': 818.0, 'init_ShelterA_1_97': 827.0, 'init_ShelterA_2_100': 830.0, 'init_ShelterA_1_95': 833.0, 'init_ShelterA_1_96': 835.0, 'init_ShelterA_1_105': 839.0, 'init_ShelterA_1_106': 846.0, 'init_ShelterA_1_108': 854.0, 'init_ShelterA_1_110': 863.0, 'init_ShelterA_1_113': 873.0, 'init_ShelterA_2_114': 876.0, 'init_ShelterA_1_98': 879.0, 'init_ShelterA_1_99': 882.0, 'init_ShelterA_1_115': 883.0, 'init_ShelterA_1_101': 884.0, 'init_ShelterA_1_102': 887.0, 'init_ShelterA_1_117': 888.0, 'init_ShelterA_1_103': 890.0, 'init_ShelterA_1_118': 892.0, 'init_ShelterA_1_104': 893.0, 'init_ShelterA_1_107': 896.0, 'init_ShelterA_1_109': 907.0, 'init_ShelterA_1_111': 909.0, 'init_ShelterA_1_124': 915.0, 'init_ShelterA_1_125': 922.0, 'init_ShelterA_1_127': 927.0, 'init_ShelterA_1_128': 933.0, 'init_ShelterA_1_112': 939.0, 'init_ShelterA_1_130': 939.0, 'init_ShelterA_1_116': 941.0, 'init_ShelterA_1_131': 945.0, 'init_ShelterA_1_132': 952.0, 'init_ShelterA_1_119': 954.0, 'init_ShelterA_1_120': 956.0, 'init_ShelterA_1_121': 958.0, 'init_ShelterA_1_133': 959.0, 'init_ShelterA_1_134': 967.0, 'init_ShelterA_1_122': 970.0, 'init_ShelterA_1_123': 972.0, 'init_ShelterA_1_135': 976.0, 'init_ShelterA_1_136': 986.0, 'init_ShelterA_2_137': 988.0, 'init_ShelterA_1_138': 996.0, 'init_ShelterA_1_126': 998.0, 'init_ShelterA_1_139': 1001.0, 'init_ShelterA_1_141': 1008.0, 'init_ShelterA_1_142': 1015.0, 'init_ShelterA_1_129': 1022.0, 'init_ShelterA_1_144': 1024.0, 'init_ShelterA_1_145': 1032.0, 'init_ShelterA_2_147': 1034.0, 'init_ShelterA_1_140': 1037.0, 'init_ShelterA_1_148': 1044.0, 'init_ShelterA_2_151': 1046.0, 'init_ShelterA_1_152': 1056.0, 'init_ShelterA_1_154': 1063.0, 'init_ShelterA_1_155': 1068.0, 'init_ShelterA_1_156': 1072.0, 'init_ShelterA_1_159': 1091.0, 'init_ShelterA_2_163': 1093.0, 'init_ShelterA_1_143': 1096.0, 'init_ShelterA_1_146': 1101.0, 'init_ShelterA_1_149': 1103.0, 'init_ShelterA_1_164': 1112.0, 'init_ShelterA_2_172': 1114.0, 'init_ShelterA_1_150': 1121.0, 'init_ShelterA_1_153': 1123.0, 'init_ShelterA_1_157': 1125.0, 'init_ShelterA_1_173': 1126.0, 'init_ShelterA_1_158': 1129.0, 'init_ShelterA_1_175': 1131.0, 'init_ShelterA_2_176': 1167.0, 'init_ShelterA_1_160': 1179.0, 'init_ShelterA_1_178': 1190.0, 'init_ShelterA_1_161': 1193.0, 'init_ShelterA_1_162': 1195.0, 'init_ShelterA_1_165': 1197.0, 'init_ShelterA_1_179': 1198.0, 'init_ShelterA_1_166': 1201.0, 'init_ShelterA_1_180': 1204.0, 'init_ShelterA_2_182': 1206.0, 'init_ShelterA_1_167': 1207.0, 'init_ShelterA_1_168': 1209.0, 'init_ShelterA_1_169': 1211.0, 'init_ShelterA_1_170': 1214.0, 'init_ShelterA_1_183': 1214.0, 'init_ShelterA_1_206': 1220.0, 'init_ShelterA_1_171': 1226.0, 'init_ShelterA_1_208': 1227.0, 'init_ShelterA_1_174': 1228.0, 'init_ShelterA_1_212': 1231.0, 'init_ShelterA_1_216': 1236.0, 'init_ShelterA_2_217': 1263.0, 'init_ShelterA_1_177': 1266.0, 'init_ShelterA_1_181': 1279.0, 'newveh_ShelterA_2_184_0': 1300.0, 'init_ShelterA_1_210': 1302.0, 'init_ShelterA_1_213': 1304.0, 'init_ShelterA_1_214': 1319.0, 'init_ShelterA_1_215': 1321.0, 'init_ShelterA_1_218': 1384.0, 'init_ShelterA_2_219': 1386.0, 'init_ShelterA_1_220': 1395.0, 'newveh_ShelterA_2_186_2': 1395.0, 'init_ShelterA_1_221': 1401.0, 'newveh_ShelterA_2_185_1': 1403.0, 'init_ShelterA_1_224': 1408.0, 'newveh_ShelterA_2_187_3': 1409.0, 'init_ShelterA_1_225': 1415.0, 'newveh_ShelterA_2_188_4': 1416.0, 'init_ShelterA_1_226': 1419.0, 'init_ShelterA_1_227': 1423.0, 'newveh_ShelterA_2_189_5': 1423.0, 'newveh_ShelterA_2_190_6': 1430.0, 'newveh_ShelterA_2_191_7': 1438.0, 'newveh_ShelterA_2_192_8': 1447.0, 'init_ShelterA_1_228': 1452.0, 'newveh_ShelterA_2_193_9': 1455.0, 'init_ShelterA_1_230': 1458.0, 'init_ShelterA_1_231': 1464.0, 'newveh_ShelterA_2_194_10': 1464.0, 'init_ShelterA_1_232': 1469.0, 'newveh_ShelterA_2_195_11': 1474.0, 'init_ShelterA_1_233': 1475.0, 'init_ShelterA_1_235': 1483.0, 'newveh_ShelterA_2_196_12': 1483.0, 'init_ShelterA_1_236': 1489.0, 'init_ShelterA_2_238': 1492.0, 'newveh_ShelterA_2_197_13': 1493.0, 'init_ShelterA_1_239': 1500.0, 'newveh_ShelterA_2_199_15': 1503.0, 'init_ShelterA_1_241': 1509.0, 'newveh_ShelterA_2_198_14': 1513.0, 'init_ShelterA_1_242': 1517.0, 'newveh_ShelterA_2_200_16': 1522.0, 'init_ShelterA_1_243': 1527.0, 'newveh_ShelterA_2_201_17': 1532.0, 'init_ShelterA_1_247': 1536.0, 'newveh_ShelterA_2_202_18': 1542.0, 'init_ShelterA_1_249': 1544.0, 'newveh_ShelterA_2_203_19': 1552.0, 'init_ShelterA_1_251': 1553.0, 'newveh_ShelterA_2_204_20': 1561.0, 'init_ShelterA_1_252': 1562.0, 'newveh_ShelterA_2_205_21': 1570.0, 'init_ShelterA_1_253': 1571.0, 'newveh_ShelterA_2_207_22': 1577.0, 'init_ShelterA_1_254': 1581.0, 'newveh_ShelterA_2_211_23': 1582.0, 'newveh_ShelterA_2_209_24': 1586.0, 'init_ShelterA_1_258': 1591.0, 'init_ShelterA_1_259': 1600.0, 'init_ShelterA_1_260': 1610.0, 'init_ShelterA_1_261': 1620.0, 'init_ShelterA_1_262': 1629.0, 'init_ShelterA_1_263': 1639.0, 'init_ShelterA_1_264': 1649.0, 'init_ShelterA_1_265': 1658.0, 'init_ShelterA_1_266': 1668.0, 'newveh_ShelterA_2_223_26': 1672.0, 'newveh_ShelterA_2_222_25': 1677.0, 'newveh_ShelterA_1_229_27': 1678.0, 'newveh_ShelterA_1_234_28': 1687.0, 'newveh_ShelterA_1_237_29': 1697.0, 'newveh_ShelterA_2_296_54': 1699.0, 'newveh_ShelterA_1_240_30': 1707.0, 'init_ShelterA_1_270': 1716.0, 'init_ShelterA_1_271': 1726.0, 'init_ShelterA_1_272': 1735.0, 'init_ShelterA_1_273': 1745.0, 'init_ShelterA_1_274': 1754.0, 'newveh_ShelterA_2_257_32': 1763.0, 'init_ShelterA_1_277': 1764.0, 'newveh_ShelterA_2_256_31': 1769.0, 'init_ShelterA_1_278': 1773.0, 'newveh_ShelterA_2_244_33': 1775.0, 'init_ShelterA_1_279': 1783.0, 'newveh_ShelterA_2_255_38': 1783.0, 'newveh_ShelterA_2_250_37': 1787.0, 'init_ShelterA_1_282': 1792.0, 'newveh_ShelterA_2_248_36': 1792.0, 'init_ShelterA_1_286': 1802.0, 'init_ShelterA_2_287': 1804.0, 'init_ShelterA_1_288': 1814.0, 'init_ShelterA_1_292': 1824.0, 'newveh_ShelterA_2_298_62': 1826.0, 'init_ShelterA_1_294': 1833.0, 'init_ShelterA_2_295': 1835.0, 'newveh_ShelterA_2_246_35': 1836.0, 'newveh_ShelterA_2_245_34': 1842.0, 'init_ShelterA_1_293': 1844.0, 'init_ShelterA_1_300': 1846.0, 'newveh_ShelterA_1_267_39': 1846.0, 'newveh_ShelterA_2_309_63': 1853.0, 'init_ShelterA_1_297': 1855.0, 'init_ShelterA_1_299': 1865.0, 'init_ShelterA_1_301': 1874.0, 'init_ShelterA_1_302': 1884.0, 'init_ShelterA_1_303': 1893.0, 'newveh_ShelterA_2_323_67': 1896.0, 'init_ShelterA_1_304': 1903.0, 'init_ShelterA_1_305': 1912.0, 'init_ShelterA_1_306': 1922.0, 'init_ShelterA_1_312': 1928.0, 'init_ShelterA_1_318': 1930.0, 'init_ShelterA_1_307': 1931.0, 'init_ShelterA_1_319': 1932.0, 'init_ShelterA_1_308': 1941.0, 'init_ShelterA_1_310': 1950.0, 'newveh_ShelterA_2_276_43': 1951.0, 'newveh_ShelterA_2_280_44': 1956.0, 'init_ShelterA_1_313': 1960.0, 'init_ShelterA_1_314': 1969.0, 'newveh_ShelterA_2_275_42': 1970.0, 'newveh_ShelterA_2_269_41': 1977.0, 'init_ShelterA_1_316': 1978.0, 'newveh_ShelterA_2_268_40': 1985.0, 'init_ShelterA_1_317': 1987.0, 'newveh_ShelterA_2_281_45': 1989.0, 'newveh_ShelterA_2_285_48': 1994.0, 'init_ShelterA_1_321': 1996.0, 'init_ShelterA_2_322': 1998.0, 'init_ShelterA_1_324': 2009.0, 'init_ShelterA_1_326': 2018.0, 'init_ShelterA_1_327': 2027.0, 'newveh_ShelterA_2_284_47': 2032.0, 'init_ShelterA_1_328': 2037.0, 'newveh_ShelterA_2_283_46': 2043.0, 'init_ShelterA_1_320': 2046.0, 'init_ShelterA_1_329': 2046.0, 'init_ShelterA_1_325': 2048.0, 'init_ShelterA_1_330': 2055.0, 'newveh_ShelterA_2_290_49': 2058.0, 'newveh_ShelterA_2_291_50': 2064.0, 'init_ShelterA_1_331': 2065.0, 'init_ShelterA_1_339': 2066.0, 'newveh_ShelterA_1_289_51': 2074.0, 'newveh_ShelterA_2_351_79': 2074.0, 'newveh_ShelterA_2_363_80': 2079.0, 'init_ShelterA_1_341': 2081.0, 'init_ShelterA_1_340': 2083.0, 'init_ShelterA_1_342': 2083.0, 'init_ShelterA_1_345': 2085.0, 'init_ShelterA_1_343': 2092.0, 'init_ShelterA_1_344': 2101.0, 'init_ShelterA_1_347': 2110.0, 'init_ShelterA_2_348': 2112.0, 'init_ShelterA_1_346': 2116.0, 'init_ShelterA_1_349': 2118.0, 'init_ShelterA_1_355': 2120.0, 'init_ShelterA_1_350': 2122.0, 'init_ShelterA_1_352': 2132.0, 'init_ShelterA_1_354': 2141.0, 'init_ShelterA_1_356': 2150.0, 'init_ShelterA_1_357': 2159.0, 'init_ShelterA_1_358': 2168.0, 'newveh_ShelterA_2_378_81': 2172.0, 'newveh_ShelterA_2_387_82': 2177.0, 'init_ShelterA_1_360': 2178.0, 'init_ShelterA_1_359': 2179.0, 'init_ShelterA_1_362': 2183.0, 'init_ShelterA_1_364': 2187.0, 'init_ShelterA_1_366': 2188.0, 'init_ShelterA_1_365': 2196.0, 'init_ShelterA_1_368': 2205.0, 'newveh_ShelterA_2_315_53': 2207.0, 'init_ShelterA_1_369': 2214.0, 'newveh_ShelterA_1_311_52': 2223.0, 'init_ShelterA_2_370': 2225.0, 'init_ShelterA_1_371': 2235.0, 'init_ShelterA_1_377': 2244.0, 'init_ShelterA_1_379': 2253.0, 'init_ShelterA_1_380': 2263.0, 'init_ShelterA_1_381': 2272.0, 'init_ShelterA_1_382': 2281.0, 'init_ShelterA_1_383': 2290.0, 'init_ShelterA_1_384': 2299.0, 'newveh_ShelterA_2_332_55': 2304.0, 'init_ShelterA_1_385': 2308.0, 'newveh_ShelterA_2_338_61': 2311.0, 'newveh_ShelterA_2_337_60': 2316.0, 'init_ShelterA_1_386': 2317.0, 'newveh_ShelterA_2_336_59': 2322.0, 'init_ShelterA_1_388': 2326.0, 'newveh_ShelterA_2_335_58': 2330.0, 'init_ShelterA_1_389': 2335.0, 'newveh_ShelterA_2_334_57': 2335.0, 'newveh_ShelterA_2_333_56': 2339.0, 'init_ShelterA_1_390': 2344.0, 'init_ShelterA_1_391': 2353.0, 'init_ShelterA_1_392': 2362.0, 'init_ShelterA_1_393': 2371.0, 'newveh_ShelterA_1_353_64': 2380.0, 'newveh_ShelterA_1_361_65': 2389.0, 'newveh_ShelterA_1_372_68': 2397.0, 'newveh_ShelterA_2_373_69': 2400.0, 'newveh_ShelterA_1_367_66': 2406.0, 'newveh_ShelterA_2_394_73': 2407.0, 'newveh_ShelterA_1_376_72': 2415.0, 'newveh_ShelterA_2_375_70': 2415.0, 'newveh_ShelterA_2_395_74': 2420.0, 'newveh_ShelterA_1_374_71': 2421.0, 'newveh_ShelterA_2_396_75': 2424.0, 'newveh_ShelterA_1_397_76': 2426.0, 'newveh_ShelterA_1_398_77': 2431.0, 'newveh_ShelterA_1_399_78': 2435.0}
vehicle_abandant_time_by_pedestrianID_dict:{}
walking_distance_by_pedestrianID_dict:{}
route_change_time_by_vehID_dict:{'init_ShelterA_2_61': 450.0, 'init_ShelterA_2_63': 450.0, 'init_ShelterA_1_69': 460.0, 'init_ShelterA_2_66': 460.0, 'init_ShelterA_1_68': 470.0, 'init_ShelterA_1_71': 500.0, 'init_ShelterA_1_67': 510.0, 'init_ShelterA_1_73': 510.0, 'init_ShelterA_1_76': 510.0, 'init_ShelterA_2_72': 510.0, 'init_ShelterA_2_81': 520.0, 'init_ShelterA_1_80': 530.0, 'init_ShelterA_1_83': 530.0, 'init_ShelterA_1_75': 550.0, 'init_ShelterA_1_79': 550.0, 'init_ShelterA_1_84': 550.0, 'init_ShelterA_1_87': 550.0, 'init_ShelterA_1_77': 560.0, 'init_ShelterA_1_89': 580.0, 'init_ShelterA_1_92': 590.0, 'init_ShelterA_1_90': 600.0, 'init_ShelterA_2_100': 610.0, 'init_ShelterA_1_99': 620.0, 'init_ShelterA_1_96': 630.0, 'init_ShelterA_1_104': 640.0, 'init_ShelterA_1_93': 640.0, 'init_ShelterA_1_95': 640.0, 'init_ShelterA_1_98': 640.0, 'init_ShelterA_1_101': 650.0, 'init_ShelterA_1_102': 650.0, 'init_ShelterA_1_103': 650.0, 'init_ShelterA_1_107': 660.0, 'init_ShelterA_1_109': 660.0, 'init_ShelterA_1_111': 680.0, 'init_ShelterA_1_112': 680.0, 'init_ShelterA_1_116': 680.0, 'init_ShelterA_2_114': 680.0, 'init_ShelterA_1_119': 700.0, 'init_ShelterA_1_123': 740.0, 'init_ShelterA_1_120': 750.0, 'init_ShelterA_1_129': 760.0, 'init_ShelterA_1_126': 770.0, 'init_ShelterA_2_137': 770.0, 'init_ShelterA_1_121': 780.0, 'init_ShelterA_1_122': 780.0, 'init_ShelterA_1_184': 810.0, 'init_ShelterA_1_185': 810.0, 'init_ShelterA_1_186': 810.0, 'init_ShelterA_1_187': 810.0, 'init_ShelterA_1_188': 810.0, 'init_ShelterA_1_189': 810.0, 'init_ShelterA_1_190': 810.0, 'init_ShelterA_1_191': 810.0, 'init_ShelterA_1_192': 810.0, 'init_ShelterA_1_193': 810.0, 'init_ShelterA_1_194': 810.0, 'init_ShelterA_1_195': 810.0, 'init_ShelterA_1_196': 810.0, 'init_ShelterA_1_197': 810.0, 'init_ShelterA_1_198': 810.0, 'init_ShelterA_1_199': 810.0, 'init_ShelterA_1_200': 810.0, 'init_ShelterA_1_201': 810.0, 'init_ShelterA_1_202': 810.0, 'init_ShelterA_1_203': 810.0, 'init_ShelterA_1_204': 810.0, 'init_ShelterA_1_205': 810.0, 'init_ShelterA_1_207': 810.0, 'init_ShelterA_1_211': 810.0, 'init_ShelterA_1_209': 830.0, 'init_ShelterA_2_147': 840.0, 'init_ShelterA_2_151': 850.0, 'init_ShelterA_1_146': 860.0, 'init_ShelterA_1_149': 860.0, 'init_ShelterA_1_150': 860.0, 'init_ShelterA_1_153': 860.0, 'init_ShelterA_1_143': 870.0, 'init_ShelterA_1_140': 880.0, 'init_ShelterA_2_163': 920.0, 'init_ShelterA_1_165': 930.0, 'init_ShelterA_1_169': 940.0, 'init_ShelterA_1_170': 940.0, 'init_ShelterA_1_171': 940.0, 'init_ShelterA_2_172': 940.0, 'init_ShelterA_1_166': 950.0, 'init_ShelterA_1_167': 950.0, 'init_ShelterA_1_168': 950.0, 'init_ShelterA_1_177': 950.0, 'init_ShelterA_2_176': 950.0, 'init_ShelterA_1_161': 960.0, 'init_ShelterA_1_174': 960.0, 'init_ShelterA_1_158': 970.0, 'init_ShelterA_1_160': 970.0, 'init_ShelterA_1_162': 970.0, 'init_ShelterA_1_157': 980.0, 'init_ShelterA_1_222': 980.0, 'init_ShelterA_1_223': 980.0, 'init_ShelterA_2_229': 980.0, 'init_ShelterA_2_234': 980.0, 'init_ShelterA_2_237': 990.0, 'init_ShelterA_2_240': 1000.0, 'init_ShelterA_2_182': 1020.0, 'init_ShelterA_2_217': 1030.0, 'init_ShelterA_1_213': 1040.0, 'init_ShelterA_1_215': 1040.0, 'init_ShelterA_1_210': 1050.0, 'init_ShelterA_1_214': 1050.0, 'init_ShelterA_1_256': 1050.0, 'init_ShelterA_1_257': 1050.0, 'init_ShelterA_1_181': 1060.0, 'init_ShelterA_1_244': 1060.0, 'init_ShelterA_1_245': 1060.0, 'init_ShelterA_1_246': 1060.0, 'init_ShelterA_1_248': 1060.0, 'init_ShelterA_1_250': 1060.0, 'init_ShelterA_1_255': 1060.0, 'init_ShelterA_2_267': 1080.0, 'init_ShelterA_1_268': 1150.0, 'init_ShelterA_1_269': 1150.0, 'init_ShelterA_1_275': 1150.0, 'init_ShelterA_1_276': 1150.0, 'init_ShelterA_1_280': 1150.0, 'init_ShelterA_1_281': 1150.0, 'init_ShelterA_1_283': 1160.0, 'init_ShelterA_1_284': 1160.0, 'init_ShelterA_1_285': 1160.0, 'init_ShelterA_2_219': 1200.0, 'init_ShelterA_1_290': 1210.0, 'init_ShelterA_1_291': 1210.0, 'init_ShelterA_2_289': 1210.0, 'init_ShelterA_2_238': 1260.0, 'init_ShelterA_2_311': 1320.0, 'init_ShelterA_1_315': 1330.0, 'init_ShelterA_2_287': 1440.0, 'init_ShelterA_1_296': 1450.0, 'init_ShelterA_2_295': 1450.0, 'init_ShelterA_1_293': 1460.0, 'init_ShelterA_1_332': 1500.0, 'init_ShelterA_1_333': 1500.0, 'init_ShelterA_1_334': 1500.0, 'init_ShelterA_1_335': 1500.0, 'init_ShelterA_1_336': 1500.0, 'init_ShelterA_1_337': 1500.0, 'init_ShelterA_1_338': 1500.0, 'init_ShelterA_1_300': 1510.0, 'init_ShelterA_1_298': 1520.0, 'init_ShelterA_1_309': 1530.0, 'init_ShelterA_2_353': 1580.0, 'init_ShelterA_2_361': 1580.0, 'init_ShelterA_2_367': 1590.0, 'init_ShelterA_1_323': 1620.0, 'init_ShelterA_2_322': 1620.0, 'init_ShelterA_2_372': 1630.0, 'init_ShelterA_1_373': 1640.0, 'init_ShelterA_1_375': 1640.0, 'init_ShelterA_2_374': 1640.0, 'init_ShelterA_2_376': 1640.0, 'init_ShelterA_1_325': 1670.0, 'init_ShelterA_1_320': 1680.0, 'init_ShelterA_1_319': 1720.0, 'init_ShelterA_1_318': 1730.0, 'init_ShelterA_1_394': 1730.0, 'init_ShelterA_1_395': 1730.0, 'init_ShelterA_1_396': 1730.0, 'init_ShelterA_2_397': 1730.0, 'init_ShelterA_2_398': 1730.0, 'init_ShelterA_2_399': 1730.0, 'init_ShelterA_1_312': 1740.0, 'init_ShelterA_2_348': 1770.0, 'init_ShelterA_1_342': 1780.0, 'init_ShelterA_1_345': 1780.0, 'init_ShelterA_1_346': 1780.0, 'init_ShelterA_1_351': 1780.0, 'init_ShelterA_1_339': 1790.0, 'init_ShelterA_1_341': 1790.0, 'init_ShelterA_1_363': 1790.0, 'init_ShelterA_2_370': 1850.0, 'init_ShelterA_1_366': 1860.0, 'init_ShelterA_1_378': 1860.0, 'init_ShelterA_1_359': 1870.0, 'init_ShelterA_1_387': 1870.0, 'init_ShelterA_1_355': 1880.0, 'init_ShelterA_1_362': 1880.0, 'init_ShelterA_1_349': 1900.0}
pedestrian_count:0
route_changed_vehicle_count:184
route_change_event_count:184
rate_vehicle_abandonment:0.00%
wrong_way_driving_count:0
vehicle_abandonment_count:0
normalcy_bias_route_change_count:105
majority_bias_route_change_count:79
lane_changed_vehicle_count:0
info_obtained_lanechange_count:0
elapsed_time_lanechange_count:0
majority_bias_lanechange_count:0

=== Job Result ===
end=2026-07-13T01:50:54+0900
elapsed_seconds=575
exit_code=0
status=SUCCESS
