=== Job Info ===
job_name=va_s3_e1.0_v1.0_r6
host=schubert
pid=109724
scenario=3
early_rate=1.0
v2v_rate=1.0
run_id=6
config=/home/katagi/vehicle-assistant-system/scenarios/JIP/configs/config_scenario_3.toml
output_dir=/home/katagi/vehicle-assistant-system/schubert_logs/va_s3_e1.0_v1.0_r6
start=2026-07-13T00:59:09+0900
python_version=Python 3.12.3
sumo_version=Eclipse SUMO sumo Version v1_23_1+0435-630512a

=== Command ===
cd /home/katagi/vehicle-assistant-system/schubert_logs/va_s3_e1.0_v1.0_r6
PYTHONPATH=/home/katagi/vehicle-assistant-system:/home/katagi/tmp/sumo/tools:/home/katagi/local/sumo/tools:/home/katagi/tmp/sumo/tools:/home/katagi/local/sumo/tools:/home/katagi/tmp/sumo/tools:/home/katagi/local/sumo/tools: python3 -W ignore::UserWarning -m scenarios.JIP.1-1-4.simulation.runner_simulator --nogui /home/katagi/vehicle-assistant-system/scenarios/JIP/configs/config_scenario_3.toml 1.0 1.0
simulation_pid=109744
Step #0.00 (0ms ?*RT. ?UPS, TraCI: 341ms, vehicles TOT 1 ACT 1 BUF 0)                     Step #100.00 (0ms ?*RT. ?UPS, TraCI: 18ms, vehicles TOT 26 ACT 26 BUF 0)                  Step #200.00 (0ms ?*RT. ?UPS, TraCI: 38ms, vehicles TOT 51 ACT 51 BUF 0)                  Step #300.00 (0ms ?*RT. ?UPS, TraCI: 55ms, vehicles TOT 77 ACT 77 BUF 0)                  Step #400.00 (0ms ?*RT. ?UPS, TraCI: 72ms, vehicles TOT 104 ACT 104 BUF 0)                Step #500.00 (1ms ~= 1000.00*RT, ~131000.00UPS, TraCI: 2030ms, vehicles TOT 131 ACT 131 BUStep #600.00 (1ms ~= 1000.00*RT, ~158000.00UPS, TraCI: 1718ms, vehicles TOT 158 ACT 158 BUStep #700.00 (1ms ~= 1000.00*RT, ~186000.00UPS, TraCI: 1473ms, vehicles TOT 186 ACT 186 BUStep #800.00 (1ms ~= 1000.00*RT, ~193000.00UPS, TraCI: 2774ms, vehicles TOT 233 ACT 193 BUStep #900.00 (1ms ~= 1000.00*RT, ~206000.00UPS, TraCI: 1835ms, vehicles TOT 253 ACT 206 BUStep #1000.00 (1ms ~= 1000.00*RT, ~231000.00UPS, TraCI: 1196ms, vehicles TOT 288 ACT 231 BStep #1100.00 (1ms ~= 1000.00*RT, ~252000.00UPS, TraCI: 960ms, vehicles TOT 317 ACT 252 BUStep #1200.00 (1ms ~= 1000.00*RT, ~280000.00UPS, TraCI: 1643ms, vehicles TOT 349 ACT 280 BStep #1300.00 (1ms ~= 1000.00*RT, ~298000.00UPS, TraCI: 2427ms, vehicles TOT 378 ACT 298 BStep #1400.00 (1ms ~= 1000.00*RT, ~321000.00UPS, TraCI: 2412ms, vehicles TOT 405 ACT 321 BStep #1500.00 (1ms ~= 1000.00*RT, ~336000.00UPS, TraCI: 2404ms, vehicles TOT 440 ACT 336 BStep #1600.00 (1ms ~= 1000.00*RT, ~358000.00UPS, TraCI: 2681ms, vehicles TOT 481 ACT 358 BStep #1700.00 (1ms ~= 1000.00*RT, ~379000.00UPS, TraCI: 1869ms, vehicles TOT 507 ACT 379 BStep #1800.00 (1ms ~= 1000.00*RT, ~400000.00UPS, TraCI: 1865ms, vehicles TOT 530 ACT 400 BStep #1900.00 (1ms ~= 1000.00*RT, ~400000.00UPS, TraCI: 1174ms, vehicles TOT 530 ACT 400 BStep #2000.00 (0ms ?*RT. ?UPS, TraCI: 637ms, vehicles TOT 530 ACT 400 BUF 0)              Step #2100.00 (0ms ?*RT. ?UPS, TraCI: 105ms, vehicles TOT 530 ACT 400 BUF 0)              Step #2200.00 (0ms ?*RT. ?UPS, TraCI: 72ms, vehicles TOT 530 ACT 400 BUF 0)               Step #2300.00 (0ms ?*RT. ?UPS, TraCI: 97ms, vehicles TOT 530 ACT 400 BUF 0)               Step #2400.00 (1ms ~= 1000.00*RT, ~400000.00UPS, TraCI: 82ms, vehicles TOT 530 ACT 400 BUFStep #2500.00 (0ms ?*RT. ?UPS, TraCI: 78ms, vehicles TOT 530 ACT 400 BUF 0)               Step #2600.00 (0ms ?*RT. ?UPS, TraCI: 79ms, vehicles TOT 530 ACT 400 BUF 0)               Step #2700.00 (1ms ~= 1000.00*RT, ~400000.00UPS, TraCI: 78ms, vehicles TOT 530 ACT 400 BUFStep #2800.00 (0ms ?*RT. ?UPS, TraCI: 79ms, vehicles TOT 530 ACT 400 BUF 0)               Step #2900.00 (0ms ?*RT. ?UPS, TraCI: 77ms, vehicles TOT 530 ACT 400 BUF 0)               Step #3000.00 (0ms ?*RT. ?UPS, TraCI: 77ms, vehicles TOT 530 ACT 400 BUF 0)               
 Retrying in 1 seconds
出現数: {'A1': 360, 'A2': 40}
割合:
  Total: 400
  A1: 360 (90.00%)
  A2: 40 (10.00%)
  B1: 0 (0.00%)
  B2: 0 (0.00%)
mean elapsed_time: 555.6525
OK all vehs arrived 
平均渋滞継続時間: 478.93秒
OK all vehicle abandonment were detected
270
130
===== Simlation Result Summary =====
avg_congestion_duration: 478.93 
arrival_time_by_vehID_dict:{'init_ShelterA_1_0': 206.0, 'init_ShelterA_1_1': 211.0, 'init_ShelterA_1_2': 216.0, 'init_ShelterA_1_3': 229.0, 'init_ShelterA_1_4': 236.0, 'init_ShelterA_1_5': 243.0, 'init_ShelterA_1_6': 248.0, 'init_ShelterA_1_7': 252.0, 'init_ShelterA_1_8': 286.0, 'init_ShelterA_1_9': 293.0, 'init_ShelterA_1_10': 299.0, 'init_ShelterA_1_11': 306.0, 'init_ShelterA_1_12': 312.0, 'init_ShelterA_1_13': 319.0, 'init_ShelterA_1_14': 327.0, 'init_ShelterA_1_15': 336.0, 'init_ShelterA_1_16': 345.0, 'init_ShelterA_1_17': 354.0, 'init_ShelterA_1_19': 364.0, 'init_ShelterA_1_20': 373.0, 'init_ShelterA_1_21': 383.0, 'init_ShelterA_1_22': 392.0, 'init_ShelterA_1_23': 402.0, 'init_ShelterA_1_24': 411.0, 'init_ShelterA_2_18': 414.0, 'init_ShelterA_1_25': 421.0, 'init_ShelterA_1_26': 431.0, 'init_ShelterA_1_27': 440.0, 'init_ShelterA_1_28': 450.0, 'init_ShelterA_1_31': 460.0, 'init_ShelterA_1_32': 469.0, 'init_ShelterA_1_33': 479.0, 'init_ShelterA_1_34': 489.0, 'init_ShelterA_1_35': 498.0, 'init_ShelterA_2_29': 500.0, 'init_ShelterA_2_30': 504.0, 'init_ShelterA_1_36': 508.0, 'init_ShelterA_1_37': 517.0, 'init_ShelterA_1_38': 527.0, 'init_ShelterA_1_39': 537.0, 'init_ShelterA_1_40': 546.0, 'init_ShelterA_1_41': 556.0, 'init_ShelterA_2_43': 564.0, 'init_ShelterA_1_42': 565.0, 'init_ShelterA_1_44': 575.0, 'init_ShelterA_1_45': 584.0, 'init_ShelterA_1_46': 594.0, 'init_ShelterA_2_59': 597.0, 'init_ShelterA_1_47': 603.0, 'init_ShelterA_1_48': 613.0, 'init_ShelterA_1_49': 622.0, 'init_ShelterA_1_50': 632.0, 'init_ShelterA_1_51': 641.0, 'init_ShelterA_1_52': 650.0, 'init_ShelterA_1_53': 660.0, 'init_ShelterA_1_54': 669.0, 'init_ShelterA_1_67': 669.0, 'init_ShelterA_1_71': 672.0, 'init_ShelterA_1_55': 678.0, 'init_ShelterA_1_75': 678.0, 'init_ShelterA_1_56': 687.0, 'init_ShelterA_1_57': 696.0, 'init_ShelterA_1_58': 705.0, 'init_ShelterA_1_60': 714.0, 'init_ShelterA_2_61': 717.0, 'init_ShelterA_1_62': 727.0, 'init_ShelterA_1_63': 736.0, 'init_ShelterA_1_79': 743.0, 'init_ShelterA_1_64': 745.0, 'init_ShelterA_1_65': 754.0, 'init_ShelterA_1_81': 755.0, 'init_ShelterA_1_82': 757.0, 'init_ShelterA_1_83': 760.0, 'init_ShelterA_1_85': 763.0, 'init_ShelterA_1_66': 764.0, 'init_ShelterA_1_87': 766.0, 'init_ShelterA_1_68': 773.0, 'init_ShelterA_1_89': 778.0, 'init_ShelterA_1_69': 782.0, 'init_ShelterA_1_90': 784.0, 'init_ShelterA_1_91': 786.0, 'init_ShelterA_1_70': 791.0, 'init_ShelterA_2_72': 793.0, 'init_ShelterA_1_73': 803.0, 'init_ShelterA_1_74': 812.0, 'init_ShelterA_1_93': 821.0, 'init_ShelterA_1_76': 822.0, 'init_ShelterA_1_96': 823.0, 'init_ShelterA_1_77': 831.0, 'init_ShelterA_1_99': 838.0, 'init_ShelterA_1_78': 840.0, 'init_ShelterA_2_80': 842.0, 'init_ShelterA_1_84': 852.0, 'init_ShelterA_2_86': 855.0, 'init_ShelterA_1_102': 857.0, 'init_ShelterA_2_88': 857.0, 'init_ShelterA_1_105': 862.0, 'init_ShelterA_1_106': 864.0, 'init_ShelterA_1_107': 867.0, 'init_ShelterA_1_92': 867.0, 'init_ShelterA_1_94': 877.0, 'init_ShelterA_1_95': 887.0, 'init_ShelterA_1_110': 888.0, 'init_ShelterA_1_112': 890.0, 'init_ShelterA_1_97': 896.0, 'init_ShelterA_1_98': 906.0, 'init_ShelterA_1_100': 916.0, 'init_ShelterA_1_101': 925.0, 'init_ShelterA_1_114': 929.0, 'init_ShelterA_1_119': 931.0, 'init_ShelterA_1_103': 935.0, 'init_ShelterA_1_120': 939.0, 'init_ShelterA_1_125': 941.0, 'init_ShelterA_1_104': 944.0, 'init_ShelterA_1_108': 953.0, 'init_ShelterA_1_109': 963.0, 'init_ShelterA_2_111': 965.0, 'init_ShelterA_1_113': 975.0, 'init_ShelterA_2_115': 977.0, 'init_ShelterA_1_116': 988.0, 'init_ShelterA_1_127': 995.0, 'init_ShelterA_1_117': 997.0, 'init_ShelterA_1_118': 1007.0, 'init_ShelterA_1_121': 1017.0, 'init_ShelterA_1_128': 1017.0, 'init_ShelterA_1_131': 1019.0, 'init_ShelterA_1_133': 1021.0, 'init_ShelterA_1_122': 1026.0, 'init_ShelterA_1_138': 1030.0, 'init_ShelterA_1_141': 1031.0, 'init_ShelterA_1_142': 1034.0, 'init_ShelterA_1_123': 1036.0, 'init_ShelterA_1_124': 1045.0, 'init_ShelterA_1_143': 1053.0, 'init_ShelterA_1_126': 1055.0, 'init_ShelterA_2_129': 1057.0, 'init_ShelterA_1_130': 1067.0, 'init_ShelterA_1_132': 1077.0, 'init_ShelterA_1_134': 1086.0, 'init_ShelterA_1_135': 1096.0, 'init_ShelterA_2_136': 1098.0, 'init_ShelterA_1_144': 1101.0, 'init_ShelterA_1_145': 1102.0, 'init_ShelterA_1_147': 1105.0, 'init_ShelterA_1_148': 1107.0, 'init_ShelterA_1_137': 1108.0, 'init_ShelterA_1_139': 1118.0, 'init_ShelterA_1_140': 1127.0, 'init_ShelterA_1_150': 1130.0, 'init_ShelterA_1_152': 1132.0, 'init_ShelterA_1_157': 1135.0, 'init_ShelterA_1_146': 1137.0, 'init_ShelterA_2_149': 1139.0, 'init_ShelterA_1_158': 1147.0, 'init_ShelterA_1_151': 1149.0, 'init_ShelterA_1_159': 1149.0, 'init_ShelterA_1_153': 1159.0, 'init_ShelterA_1_154': 1169.0, 'init_ShelterA_1_155': 1178.0, 'init_ShelterA_1_160': 1181.0, 'init_ShelterA_1_161': 1183.0, 'init_ShelterA_1_156': 1186.0, 'init_ShelterA_1_163': 1191.0, 'init_ShelterA_1_162': 1193.0, 'newveh_ShelterA_1_186_24': 1196.0, 'init_ShelterA_1_164': 1197.0, 'init_ShelterA_1_165': 1199.0, 'newveh_ShelterA_1_185_23': 1200.0, 'init_ShelterA_1_166': 1201.0, 'newveh_ShelterA_2_167_0': 1220.0, 'newveh_ShelterA_1_192_25': 1224.0, 'newveh_ShelterA_2_191_22': 1238.0, 'newveh_ShelterA_2_190_21': 1245.0, 'newveh_ShelterA_2_189_20': 1251.0, 'newveh_ShelterA_2_188_19': 1257.0, 'newveh_ShelterA_2_187_18': 1265.0, 'newveh_ShelterA_2_184_17': 1270.0, 'newveh_ShelterA_2_183_16': 1274.0, 'newveh_ShelterA_1_201_33': 1283.0, 'newveh_ShelterA_2_182_15': 1293.0, 'init_ShelterA_1_212': 1300.0, 'newveh_ShelterA_2_181_14': 1303.0, 'newveh_ShelterA_2_180_13': 1307.0, 'newveh_ShelterA_2_179_12': 1312.0, 'newveh_ShelterA_2_178_11': 1320.0, 'newveh_ShelterA_2_177_10': 1339.0, 'newveh_ShelterA_2_176_9': 1346.0, 'newveh_ShelterA_2_175_8': 1352.0, 'newveh_ShelterA_2_174_7': 1357.0, 'newveh_ShelterA_2_173_6': 1363.0, 'init_ShelterA_1_215': 1365.0, 'newveh_ShelterA_2_172_5': 1370.0, 'init_ShelterA_1_216': 1372.0, 'newveh_ShelterA_2_171_4': 1377.0, 'init_ShelterA_1_217': 1378.0, 'init_ShelterA_1_218': 1383.0, 'newveh_ShelterA_2_170_3': 1385.0, 'init_ShelterA_1_219': 1390.0, 'newveh_ShelterA_2_169_2': 1393.0, 'init_ShelterA_1_220': 1397.0, 'newveh_ShelterA_2_168_1': 1401.0, 'init_ShelterA_1_221': 1404.0, 'newveh_ShelterA_2_202_32': 1410.0, 'init_ShelterA_1_222': 1412.0, 'init_ShelterA_1_223': 1419.0, 'newveh_ShelterA_2_200_31': 1419.0, 'init_ShelterA_1_227': 1423.0, 'init_ShelterA_1_235': 1427.0, 'newveh_ShelterA_2_199_30': 1429.0, 'newveh_ShelterA_2_196_29': 1439.0, 'newveh_ShelterA_2_195_28': 1448.0, 'newveh_ShelterA_2_194_27': 1458.0, 'init_ShelterA_1_241': 1465.0, 'newveh_ShelterA_2_193_26': 1468.0, 'init_ShelterA_1_244': 1473.0, 'newveh_ShelterA_2_197_34': 1477.0, 'init_ShelterA_1_246': 1479.0, 'init_ShelterA_2_247': 1481.0, 'newveh_ShelterA_2_198_35': 1487.0, 'init_ShelterA_1_248': 1490.0, 'init_ShelterA_1_251': 1494.0, 'newveh_ShelterA_2_204_37': 1497.0, 'init_ShelterA_1_253': 1499.0, 'newveh_ShelterA_2_203_36': 1506.0, 'newveh_ShelterA_2_205_38': 1516.0, 'newveh_ShelterA_2_206_39': 1526.0, 'newveh_ShelterA_2_210_42': 1535.0, 'newveh_ShelterA_2_209_41': 1545.0, 'newveh_ShelterA_1_234_47': 1551.0, 'newveh_ShelterA_2_208_40': 1555.0, 'init_ShelterA_1_267': 1556.0, 'newveh_ShelterA_1_236_51': 1561.0, 'newveh_ShelterA_2_211_44': 1564.0, 'init_ShelterA_1_268': 1571.0, 'newveh_ShelterA_2_207_43': 1574.0, 'init_ShelterA_1_269': 1576.0, 'init_ShelterA_1_270': 1581.0, 'newveh_ShelterA_2_213_45': 1584.0, 'init_ShelterA_1_232': 1586.0, 'init_ShelterA_1_237': 1588.0, 'newveh_ShelterA_2_214_46': 1598.0, 'newveh_ShelterA_2_249_79': 1619.0, 'init_ShelterA_1_238': 1622.0, 'init_ShelterA_1_239': 1624.0, 'init_ShelterA_1_240': 1626.0, 'init_ShelterA_1_242': 1628.0, 'init_ShelterA_1_243': 1630.0, 'init_ShelterA_1_271': 1632.0, 'init_ShelterA_1_245': 1633.0, 'init_ShelterA_1_252': 1636.0, 'init_ShelterA_1_254': 1639.0, 'init_ShelterA_1_255': 1642.0, 'init_ShelterA_1_272': 1643.0, 'init_ShelterA_1_257': 1645.0, 'init_ShelterA_1_259': 1648.0, 'init_ShelterA_1_273': 1649.0, 'init_ShelterA_1_274': 1654.0, 'init_ShelterA_1_275': 1660.0, 'init_ShelterA_1_265': 1665.0, 'init_ShelterA_1_266': 1666.0, 'init_ShelterA_1_281': 1666.0, 'init_ShelterA_1_282': 1673.0, 'init_ShelterA_1_283': 1679.0, 'init_ShelterA_1_284': 1684.0, 'newveh_ShelterA_2_233_50': 1684.0, 'newveh_ShelterA_1_250_57': 1688.0, 'newveh_ShelterA_2_224_48': 1692.0, 'newveh_ShelterA_2_230_49': 1698.0, 'newveh_ShelterA_2_225_52': 1706.0, 'newveh_ShelterA_2_231_56': 1710.0, 'newveh_ShelterA_2_229_55': 1715.0, 'init_ShelterA_1_295': 1726.0, 'init_ShelterA_1_297': 1732.0, 'newveh_ShelterA_2_228_54': 1734.0, 'init_ShelterA_1_298': 1739.0, 'init_ShelterA_1_299': 1745.0, 'init_ShelterA_1_300': 1750.0, 'init_ShelterA_1_301': 1756.0, 'newveh_ShelterA_2_226_53': 1759.0, 'init_ShelterA_1_280': 1761.0, 'init_ShelterA_1_303': 1762.0, 'init_ShelterA_1_304': 1769.0, 'newveh_ShelterA_2_260_59': 1770.0, 'init_ShelterA_1_309': 1776.0, 'newveh_ShelterA_2_258_58': 1776.0, 'init_ShelterA_1_310': 1780.0, 'newveh_ShelterA_2_261_60': 1781.0, 'init_ShelterA_1_313': 1785.0, 'newveh_ShelterA_2_262_61': 1789.0, 'newveh_ShelterA_2_263_62': 1794.0, 'newveh_ShelterA_2_308_105': 1798.0, 'newveh_ShelterA_2_307_104': 1807.0, 'newveh_ShelterA_2_314_107': 1811.0, 'init_ShelterA_1_318': 1819.0, 'init_ShelterA_1_319': 1833.0, 'init_ShelterA_1_321': 1838.0, 'init_ShelterA_1_330': 1843.0, 'newveh_ShelterA_2_264_64': 1849.0, 'init_ShelterA_1_331': 1858.0, 'init_ShelterA_1_332': 1862.0, 'newveh_ShelterA_2_256_63': 1863.0, 'init_ShelterA_1_296': 1865.0, 'init_ShelterA_1_302': 1867.0, 'init_ShelterA_1_315': 1869.0, 'init_ShelterA_1_316': 1871.0, 'newveh_ShelterA_2_317_109': 1891.0, 'newveh_ShelterA_2_312_108': 1896.0, 'init_ShelterA_1_337': 1911.0, 'newveh_ShelterA_2_276_65': 1912.0, 'init_ShelterA_1_320': 1914.0, 'init_ShelterA_1_322': 1916.0, 'init_ShelterA_1_338': 1918.0, 'init_ShelterA_1_340': 1923.0, 'newveh_ShelterA_1_289_70': 1929.0, 'newveh_ShelterA_2_277_66': 1932.0, 'newveh_ShelterA_1_294_71': 1934.0, 'init_ShelterA_1_342': 1941.0, 'newveh_ShelterA_2_278_67': 1941.0, 'init_ShelterA_1_343': 1945.0, 'init_ShelterA_1_345': 1950.0, 'newveh_ShelterA_2_279_68': 1957.0, 'init_ShelterA_1_323': 1960.0, 'init_ShelterA_1_326': 1962.0, 'init_ShelterA_1_327': 1964.0, 'init_ShelterA_1_329': 1966.0, 'init_ShelterA_1_336': 1968.0, 'newveh_ShelterA_2_334_123': 1978.0, 'init_ShelterA_1_360': 1996.0, 'newveh_ShelterA_2_286_69': 1997.0, 'init_ShelterA_1_361': 2004.0, 'init_ShelterA_1_363': 2012.0, 'init_ShelterA_2_364': 2014.0, 'init_ShelterA_2_365': 2016.0, 'newveh_ShelterA_2_285_72': 2020.0, 'init_ShelterA_1_366': 2026.0, 'newveh_ShelterA_2_292_77': 2026.0, 'newveh_ShelterA_1_311_80': 2032.0, 'newveh_ShelterA_2_291_76': 2033.0, 'init_ShelterA_2_367': 2035.0, 'newveh_ShelterA_1_306_82': 2044.0, 'newveh_ShelterA_2_290_75': 2051.0, 'init_ShelterA_1_374': 2052.0, 'newveh_ShelterA_2_288_74': 2059.0, 'init_ShelterA_1_375': 2060.0, 'init_ShelterA_1_378': 2066.0, 'init_ShelterA_2_386': 2068.0, 'newveh_ShelterA_2_287_73': 2068.0, 'init_ShelterA_1_387': 2073.0, 'newveh_ShelterA_2_293_78': 2074.0, 'init_ShelterA_1_359': 2076.0, 'newveh_ShelterA_2_390_129': 2082.0, 'init_ShelterA_1_389': 2085.0, 'newveh_ShelterA_2_388_128': 2087.0, 'init_ShelterA_1_395': 2090.0, 'newveh_ShelterA_2_305_81': 2094.0, 'newveh_ShelterA_1_335_84': 2101.0, 'newveh_ShelterA_1_324_83': 2106.0, 'init_ShelterA_1_382': 2116.0, 'init_ShelterA_1_384': 2118.0, 'newveh_ShelterA_1_339_89': 2121.0, 'newveh_ShelterA_1_350_94': 2126.0, 'newveh_ShelterA_1_352_99': 2184.0, 'init_ShelterA_1_391': 2197.0, 'init_ShelterA_1_392': 2198.0, 'newveh_ShelterA_1_356_103': 2198.0, 'init_ShelterA_1_393': 2200.0, 'init_ShelterA_1_394': 2202.0, 'newveh_ShelterA_1_362_106': 2203.0, 'newveh_ShelterA_2_325_85': 2221.0, 'newveh_ShelterA_2_333_87': 2228.0, 'newveh_ShelterA_2_328_86': 2234.0, 'newveh_ShelterA_2_341_88': 2241.0, 'newveh_ShelterA_2_349_93': 2249.0, 'newveh_ShelterA_2_348_92': 2253.0, 'newveh_ShelterA_2_347_91': 2258.0, 'newveh_ShelterA_1_385_122': 2262.0, 'newveh_ShelterA_1_383_121': 2269.0, 'newveh_ShelterA_2_353_97': 2283.0, 'newveh_ShelterA_2_354_98': 2289.0, 'newveh_ShelterA_2_351_96': 2294.0, 'newveh_ShelterA_2_344_90': 2301.0, 'newveh_ShelterA_2_346_95': 2307.0, 'newveh_ShelterA_2_355_100': 2312.0, 'newveh_ShelterA_2_358_102': 2318.0, 'newveh_ShelterA_2_357_101': 2324.0, 'newveh_ShelterA_2_381_115': 2331.0, 'newveh_ShelterA_2_380_114': 2338.0, 'newveh_ShelterA_2_379_113': 2346.0, 'newveh_ShelterA_2_377_112': 2353.0, 'newveh_ShelterA_2_368_116': 2360.0, 'newveh_ShelterA_2_373_111': 2365.0, 'newveh_ShelterA_2_369_110': 2371.0, 'newveh_ShelterA_2_376_120': 2376.0, 'newveh_ShelterA_2_372_119': 2381.0, 'newveh_ShelterA_2_371_118': 2387.0, 'newveh_ShelterA_2_370_117': 2392.0, 'newveh_ShelterA_2_398_126': 2399.0, 'newveh_ShelterA_2_397_125': 2407.0, 'newveh_ShelterA_2_396_124': 2411.0, 'newveh_ShelterA_2_399_127': 2416.0}
vehicle_abandant_time_by_pedestrianID_dict:{}
walking_distance_by_pedestrianID_dict:{}
route_change_time_by_vehID_dict:{'init_ShelterA_2_61': 440.0, 'init_ShelterA_1_67': 460.0, 'init_ShelterA_1_71': 460.0, 'init_ShelterA_2_72': 460.0, 'init_ShelterA_1_75': 500.0, 'init_ShelterA_2_88': 500.0, 'init_ShelterA_1_87': 520.0, 'init_ShelterA_2_80': 520.0, 'init_ShelterA_2_86': 520.0, 'init_ShelterA_1_81': 530.0, 'init_ShelterA_1_89': 530.0, 'init_ShelterA_1_82': 550.0, 'init_ShelterA_1_83': 550.0, 'init_ShelterA_1_85': 550.0, 'init_ShelterA_1_79': 560.0, 'init_ShelterA_1_90': 590.0, 'init_ShelterA_1_91': 590.0, 'init_ShelterA_1_93': 590.0, 'init_ShelterA_1_96': 600.0, 'init_ShelterA_1_105': 610.0, 'init_ShelterA_1_107': 610.0, 'init_ShelterA_1_99': 610.0, 'init_ShelterA_1_102': 650.0, 'init_ShelterA_1_110': 670.0, 'init_ShelterA_1_112': 670.0, 'init_ShelterA_2_111': 670.0, 'init_ShelterA_1_106': 680.0, 'init_ShelterA_1_114': 680.0, 'init_ShelterA_2_115': 680.0, 'init_ShelterA_1_119': 690.0, 'init_ShelterA_1_120': 690.0, 'init_ShelterA_1_167': 720.0, 'init_ShelterA_1_168': 720.0, 'init_ShelterA_1_169': 720.0, 'init_ShelterA_1_170': 720.0, 'init_ShelterA_1_171': 720.0, 'init_ShelterA_1_172': 720.0, 'init_ShelterA_1_173': 720.0, 'init_ShelterA_1_174': 720.0, 'init_ShelterA_1_175': 720.0, 'init_ShelterA_1_176': 720.0, 'init_ShelterA_1_177': 720.0, 'init_ShelterA_1_178': 720.0, 'init_ShelterA_1_179': 720.0, 'init_ShelterA_1_180': 720.0, 'init_ShelterA_1_181': 720.0, 'init_ShelterA_1_182': 720.0, 'init_ShelterA_1_183': 720.0, 'init_ShelterA_1_184': 720.0, 'init_ShelterA_1_187': 720.0, 'init_ShelterA_1_188': 720.0, 'init_ShelterA_1_189': 720.0, 'init_ShelterA_1_190': 720.0, 'init_ShelterA_1_191': 720.0, 'init_ShelterA_2_136': 720.0, 'init_ShelterA_2_185': 720.0, 'init_ShelterA_2_186': 720.0, 'init_ShelterA_1_125': 740.0, 'init_ShelterA_2_129': 770.0, 'init_ShelterA_1_131': 780.0, 'init_ShelterA_1_138': 780.0, 'init_ShelterA_1_142': 780.0, 'init_ShelterA_2_192': 780.0, 'init_ShelterA_1_128': 790.0, 'init_ShelterA_1_193': 790.0, 'init_ShelterA_1_194': 790.0, 'init_ShelterA_1_195': 790.0, 'init_ShelterA_1_196': 790.0, 'init_ShelterA_1_199': 790.0, 'init_ShelterA_1_200': 790.0, 'init_ShelterA_1_202': 790.0, 'init_ShelterA_2_149': 790.0, 'init_ShelterA_2_201': 790.0, 'init_ShelterA_1_148': 800.0, 'init_ShelterA_1_197': 800.0, 'init_ShelterA_1_198': 800.0, 'init_ShelterA_1_203': 800.0, 'init_ShelterA_1_204': 800.0, 'init_ShelterA_1_205': 800.0, 'init_ShelterA_1_206': 800.0, 'init_ShelterA_1_208': 810.0, 'init_ShelterA_1_209': 810.0, 'init_ShelterA_1_210': 810.0, 'init_ShelterA_1_133': 820.0, 'init_ShelterA_1_127': 830.0, 'init_ShelterA_1_207': 830.0, 'init_ShelterA_1_211': 830.0, 'init_ShelterA_1_143': 840.0, 'init_ShelterA_1_144': 840.0, 'init_ShelterA_1_141': 850.0, 'init_ShelterA_1_147': 850.0, 'init_ShelterA_1_157': 860.0, 'init_ShelterA_1_158': 860.0, 'init_ShelterA_1_152': 870.0, 'init_ShelterA_1_150': 880.0, 'init_ShelterA_1_213': 880.0, 'init_ShelterA_1_214': 880.0, 'init_ShelterA_1_145': 910.0, 'init_ShelterA_1_160': 920.0, 'init_ShelterA_1_162': 920.0, 'init_ShelterA_1_164': 920.0, 'init_ShelterA_1_165': 920.0, 'init_ShelterA_1_166': 920.0, 'init_ShelterA_1_159': 930.0, 'init_ShelterA_1_161': 930.0, 'init_ShelterA_2_234': 970.0, 'init_ShelterA_1_224': 980.0, 'init_ShelterA_1_230': 980.0, 'init_ShelterA_1_233': 980.0, 'init_ShelterA_2_236': 980.0, 'init_ShelterA_1_225': 990.0, 'init_ShelterA_1_226': 990.0, 'init_ShelterA_1_228': 990.0, 'init_ShelterA_1_229': 990.0, 'init_ShelterA_1_231': 990.0, 'init_ShelterA_2_250': 1040.0, 'init_ShelterA_1_258': 1070.0, 'init_ShelterA_1_260': 1070.0, 'init_ShelterA_1_261': 1070.0, 'init_ShelterA_1_262': 1070.0, 'init_ShelterA_1_263': 1070.0, 'init_ShelterA_1_256': 1080.0, 'init_ShelterA_1_264': 1080.0, 'init_ShelterA_1_276': 1160.0, 'init_ShelterA_1_277': 1160.0, 'init_ShelterA_1_278': 1160.0, 'init_ShelterA_1_279': 1160.0, 'init_ShelterA_1_238': 1220.0, 'init_ShelterA_1_286': 1220.0, 'init_ShelterA_2_289': 1220.0, 'init_ShelterA_2_294': 1220.0, 'init_ShelterA_1_285': 1230.0, 'init_ShelterA_1_287': 1230.0, 'init_ShelterA_1_288': 1230.0, 'init_ShelterA_1_290': 1230.0, 'init_ShelterA_1_291': 1230.0, 'init_ShelterA_1_292': 1230.0, 'init_ShelterA_1_293': 1230.0, 'init_ShelterA_1_243': 1260.0, 'init_ShelterA_1_249': 1260.0, 'init_ShelterA_2_247': 1260.0, 'init_ShelterA_1_232': 1270.0, 'init_ShelterA_1_240': 1280.0, 'init_ShelterA_1_242': 1290.0, 'init_ShelterA_1_239': 1300.0, 'init_ShelterA_1_245': 1300.0, 'init_ShelterA_1_254': 1300.0, 'init_ShelterA_1_237': 1310.0, 'init_ShelterA_1_265': 1310.0, 'init_ShelterA_2_311': 1310.0, 'init_ShelterA_1_259': 1320.0, 'init_ShelterA_1_305': 1320.0, 'init_ShelterA_2_306': 1320.0, 'init_ShelterA_1_252': 1330.0, 'init_ShelterA_1_255': 1330.0, 'init_ShelterA_1_257': 1330.0, 'init_ShelterA_1_266': 1380.0, 'init_ShelterA_2_324': 1390.0, 'init_ShelterA_2_335': 1410.0, 'init_ShelterA_1_325': 1420.0, 'init_ShelterA_1_328': 1420.0, 'init_ShelterA_1_333': 1420.0, 'init_ShelterA_1_341': 1420.0, 'init_ShelterA_2_339': 1420.0, 'init_ShelterA_1_280': 1430.0, 'init_ShelterA_1_344': 1480.0, 'init_ShelterA_1_347': 1480.0, 'init_ShelterA_1_348': 1480.0, 'init_ShelterA_1_349': 1480.0, 'init_ShelterA_2_350': 1480.0, 'init_ShelterA_1_346': 1490.0, 'init_ShelterA_1_351': 1490.0, 'init_ShelterA_1_353': 1490.0, 'init_ShelterA_1_354': 1490.0, 'init_ShelterA_2_352': 1490.0, 'init_ShelterA_1_355': 1500.0, 'init_ShelterA_1_357': 1500.0, 'init_ShelterA_1_358': 1500.0, 'init_ShelterA_2_356': 1500.0, 'init_ShelterA_1_307': 1510.0, 'init_ShelterA_1_308': 1510.0, 'init_ShelterA_2_362': 1510.0, 'init_ShelterA_1_314': 1520.0, 'init_ShelterA_1_312': 1530.0, 'init_ShelterA_1_317': 1530.0, 'init_ShelterA_1_322': 1550.0, 'init_ShelterA_1_323': 1550.0, 'init_ShelterA_1_320': 1560.0, 'init_ShelterA_1_369': 1570.0, 'init_ShelterA_1_373': 1570.0, 'init_ShelterA_1_377': 1570.0, 'init_ShelterA_1_379': 1570.0, 'init_ShelterA_1_380': 1570.0, 'init_ShelterA_1_381': 1570.0, 'init_ShelterA_1_368': 1580.0, 'init_ShelterA_1_370': 1580.0, 'init_ShelterA_1_371': 1580.0, 'init_ShelterA_1_372': 1580.0, 'init_ShelterA_1_376': 1580.0, 'init_ShelterA_2_383': 1580.0, 'init_ShelterA_2_385': 1580.0, 'init_ShelterA_1_334': 1620.0, 'init_ShelterA_1_315': 1640.0, 'init_ShelterA_1_316': 1640.0, 'init_ShelterA_1_302': 1650.0, 'init_ShelterA_1_396': 1650.0, 'init_ShelterA_1_397': 1650.0, 'init_ShelterA_1_398': 1650.0, 'init_ShelterA_1_399': 1650.0, 'init_ShelterA_1_296': 1660.0, 'init_ShelterA_1_326': 1720.0, 'init_ShelterA_1_327': 1720.0, 'init_ShelterA_1_329': 1720.0, 'init_ShelterA_1_336': 1730.0, 'init_ShelterA_2_365': 1760.0, 'init_ShelterA_2_367': 1760.0, 'init_ShelterA_2_364': 1770.0, 'init_ShelterA_1_359': 1780.0, 'init_ShelterA_1_388': 1780.0, 'init_ShelterA_1_390': 1780.0, 'init_ShelterA_2_386': 1780.0, 'init_ShelterA_1_392': 1810.0, 'init_ShelterA_1_394': 1810.0, 'init_ShelterA_1_391': 1820.0, 'init_ShelterA_1_393': 1820.0, 'init_ShelterA_1_384': 1850.0, 'init_ShelterA_1_382': 1900.0}
pedestrian_count:0
route_changed_vehicle_count:227
route_change_event_count:227
rate_vehicle_abandonment:0.00%
wrong_way_driving_count:0
vehicle_abandonment_count:0
normalcy_bias_route_change_count:170
majority_bias_route_change_count:57
lane_changed_vehicle_count:0
info_obtained_lanechange_count:0
elapsed_time_lanechange_count:0
majority_bias_lanechange_count:0

=== Job Result ===
end=2026-07-13T01:07:08+0900
elapsed_seconds=479
exit_code=0
status=SUCCESS
