=== Job Info ===
job_name=va_s6_e1.0_v1.0_r13
host=schubert
pid=119296
scenario=6
early_rate=1.0
v2v_rate=1.0
run_id=13
config=/home/katagi/vehicle-assistant-system/scenarios/JIP/configs/config_scenario_6.toml
output_dir=/home/katagi/vehicle-assistant-system/schubert_logs/va_s6_e1.0_v1.0_r13
start=2026-07-13T01:52:55+0900
python_version=Python 3.12.3
sumo_version=Eclipse SUMO sumo Version v1_23_1+0435-630512a

=== Command ===
cd /home/katagi/vehicle-assistant-system/schubert_logs/va_s6_e1.0_v1.0_r13
PYTHONPATH=/home/katagi/vehicle-assistant-system:/home/katagi/tmp/sumo/tools:/home/katagi/local/sumo/tools:/home/katagi/tmp/sumo/tools:/home/katagi/local/sumo/tools:/home/katagi/tmp/sumo/tools:/home/katagi/local/sumo/tools: python3 -W ignore::UserWarning -m scenarios.JIP.1-1-4.simulation.runner_simulator --nogui /home/katagi/vehicle-assistant-system/scenarios/JIP/configs/config_scenario_6.toml 1.0 1.0
simulation_pid=119316
Step #0.00 (0ms ?*RT. ?UPS, TraCI: 336ms, vehicles TOT 1 ACT 1 BUF 0)                     Step #100.00 (0ms ?*RT. ?UPS, TraCI: 17ms, vehicles TOT 26 ACT 26 BUF 0)                  Step #200.00 (0ms ?*RT. ?UPS, TraCI: 36ms, vehicles TOT 51 ACT 51 BUF 0)                  Step #300.00 (1ms ~= 1000.00*RT, ~77000.00UPS, TraCI: 56ms, vehicles TOT 77 ACT 77 BUF 0) Step #400.00 (1ms ~= 1000.00*RT, ~104000.00UPS, TraCI: 517ms, vehicles TOT 104 ACT 104 BUFStep #500.00 (0ms ?*RT. ?UPS, TraCI: 1264ms, vehicles TOT 133 ACT 131 BUF 0)              Step #600.00 (1ms ~= 1000.00*RT, ~158000.00UPS, TraCI: 533ms, vehicles TOT 160 ACT 158 BUFStep #700.00 (1ms ~= 1000.00*RT, ~185000.00UPS, TraCI: 336ms, vehicles TOT 187 ACT 185 BUFStep #800.00 (1ms ~= 1000.00*RT, ~207000.00UPS, TraCI: 201ms, vehicles TOT 209 ACT 207 BUFStep #900.00 (1ms ~= 1000.00*RT, ~210000.00UPS, TraCI: 1496ms, vehicles TOT 239 ACT 210 BUStep #1000.00 (0ms ?*RT. ?UPS, TraCI: 1635ms, vehicles TOT 274 ACT 235 BUF 39)            Step #1100.00 (0ms ?*RT. ?UPS, TraCI: 578ms, vehicles TOT 311 ACT 254 BUF 50)             Step #1200.00 (1ms ~= 1000.00*RT, ~273000.00UPS, TraCI: 1271ms, vehicles TOT 342 ACT 273 BStep #1300.00 (1ms ~= 1000.00*RT, ~298000.00UPS, TraCI: 1509ms, vehicles TOT 370 ACT 298 BStep #1400.00 (1ms ~= 1000.00*RT, ~314000.00UPS, TraCI: 1645ms, vehicles TOT 405 ACT 314 BStep #1500.00 (1ms ~= 1000.00*RT, ~329000.00UPS, TraCI: 1625ms, vehicles TOT 434 ACT 329 BStep #1600.00 (1ms ~= 1000.00*RT, ~356000.00UPS, TraCI: 1730ms, vehicles TOT 469 ACT 356 BStep #1700.00 (1ms ~= 1000.00*RT, ~379000.00UPS, TraCI: 891ms, vehicles TOT 510 ACT 379 BUStep #1800.00 (1ms ~= 1000.00*RT, ~400000.00UPS, TraCI: 1017ms, vehicles TOT 534 ACT 400 BStep #1900.00 (1ms ~= 1000.00*RT, ~400000.00UPS, TraCI: 635ms, vehicles TOT 534 ACT 400 BUStep #2000.00 (1ms ~= 1000.00*RT, ~400000.00UPS, TraCI: 281ms, vehicles TOT 534 ACT 400 BUStep #2100.00 (1ms ~= 1000.00*RT, ~400000.00UPS, TraCI: 127ms, vehicles TOT 534 ACT 400 BUStep #2200.00 (1ms ~= 1000.00*RT, ~400000.00UPS, TraCI: 112ms, vehicles TOT 534 ACT 400 BUStep #2300.00 (1ms ~= 1000.00*RT, ~400000.00UPS, TraCI: 103ms, vehicles TOT 534 ACT 400 BUStep #2400.00 (0ms ?*RT. ?UPS, TraCI: 100ms, vehicles TOT 534 ACT 400 BUF 0)              Step #2500.00 (0ms ?*RT. ?UPS, TraCI: 96ms, vehicles TOT 534 ACT 400 BUF 0)               Step #2600.00 (1ms ~= 1000.00*RT, ~400000.00UPS, TraCI: 84ms, vehicles TOT 534 ACT 400 BUFStep #2700.00 (0ms ?*RT. ?UPS, TraCI: 77ms, vehicles TOT 534 ACT 400 BUF 0)               Step #2800.00 (0ms ?*RT. ?UPS, TraCI: 77ms, vehicles TOT 534 ACT 400 BUF 0)               Step #2900.00 (0ms ?*RT. ?UPS, TraCI: 76ms, vehicles TOT 534 ACT 400 BUF 0)               Step #3000.00 (1ms ~= 1000.00*RT, ~400000.00UPS, TraCI: 76ms, vehicles TOT 534 ACT 400 BUF
 Retrying in 1 seconds
出現数: {'A1': 358, 'A2': 42}
割合:
  Total: 400
  A1: 358 (89.50%)
  A2: 42 (10.50%)
  B1: 0 (0.00%)
  B2: 0 (0.00%)
mean elapsed_time: 598.6025
OK all vehs arrived 
平均渋滞継続時間: 505.15秒
OK all vehicle abandonment were detected
250
150
===== Simlation Result Summary =====
avg_congestion_duration: 505.15 
arrival_time_by_vehID_dict:{'init_ShelterA_1_0': 220.0, 'init_ShelterA_1_1': 228.0, 'init_ShelterA_1_2': 234.0, 'init_ShelterA_1_3': 238.0, 'init_ShelterA_1_4': 243.0, 'init_ShelterA_1_5': 284.0, 'init_ShelterA_1_6': 295.0, 'init_ShelterA_1_7': 301.0, 'init_ShelterA_1_9': 307.0, 'init_ShelterA_1_10': 313.0, 'init_ShelterA_1_11': 319.0, 'init_ShelterA_1_12': 326.0, 'init_ShelterA_1_15': 333.0, 'init_ShelterA_1_16': 340.0, 'init_ShelterA_1_17': 349.0, 'init_ShelterA_1_18': 357.0, 'init_ShelterA_1_19': 362.0, 'init_ShelterA_1_20': 367.0, 'init_ShelterA_1_21': 373.0, 'init_ShelterA_1_22': 378.0, 'init_ShelterA_2_8': 379.0, 'init_ShelterA_1_23': 384.0, 'init_ShelterA_1_24': 391.0, 'init_ShelterA_1_26': 399.0, 'init_ShelterA_1_27': 407.0, 'init_ShelterA_2_13': 409.0, 'init_ShelterA_2_14': 414.0, 'init_ShelterA_1_28': 416.0, 'init_ShelterA_1_29': 425.0, 'init_ShelterA_1_30': 434.0, 'init_ShelterA_1_31': 443.0, 'init_ShelterA_1_32': 453.0, 'init_ShelterA_1_34': 462.0, 'init_ShelterA_1_35': 472.0, 'init_ShelterA_1_36': 481.0, 'init_ShelterA_1_37': 490.0, 'init_ShelterA_2_25': 490.0, 'init_ShelterA_2_33': 495.0, 'init_ShelterA_1_38': 499.0, 'init_ShelterA_1_39': 509.0, 'init_ShelterA_1_41': 518.0, 'init_ShelterA_1_42': 528.0, 'init_ShelterA_1_43': 537.0, 'init_ShelterA_1_44': 547.0, 'init_ShelterA_1_45': 556.0, 'init_ShelterA_1_46': 566.0, 'init_ShelterA_2_40': 571.0, 'init_ShelterA_1_47': 576.0, 'init_ShelterA_1_49': 585.0, 'init_ShelterA_2_50': 587.0, 'init_ShelterA_1_52': 597.0, 'init_ShelterA_1_53': 607.0, 'newveh_ShelterA_2_51_1': 610.0, 'init_ShelterA_1_54': 618.0, 'init_ShelterA_2_55': 620.0, 'init_ShelterA_2_64': 622.0, 'init_ShelterA_1_66': 628.0, 'init_ShelterA_2_67': 630.0, 'init_ShelterA_2_76': 641.0, 'init_ShelterA_2_83': 658.0, 'newveh_ShelterA_2_48_0': 658.0, 'init_ShelterA_1_56': 661.0, 'init_ShelterA_1_57': 663.0, 'init_ShelterA_1_58': 666.0, 'init_ShelterA_1_59': 680.0, 'init_ShelterA_1_60': 683.0, 'init_ShelterA_1_61': 685.0, 'init_ShelterA_1_62': 688.0, 'init_ShelterA_1_63': 691.0, 'init_ShelterA_1_65': 694.0, 'init_ShelterA_1_68': 697.0, 'init_ShelterA_1_69': 700.0, 'init_ShelterA_1_70': 703.0, 'init_ShelterA_1_71': 726.0, 'init_ShelterA_1_72': 734.0, 'init_ShelterA_2_93': 736.0, 'init_ShelterA_2_94': 738.0, 'init_ShelterA_1_73': 740.0, 'init_ShelterA_2_97': 741.0, 'init_ShelterA_1_74': 742.0, 'init_ShelterA_1_75': 748.0, 'init_ShelterA_1_77': 758.0, 'init_ShelterA_1_78': 769.0, 'init_ShelterA_1_79': 771.0, 'init_ShelterA_1_80': 774.0, 'init_ShelterA_1_81': 776.0, 'init_ShelterA_1_82': 779.0, 'init_ShelterA_1_84': 782.0, 'init_ShelterA_1_85': 785.0, 'init_ShelterA_1_86': 788.0, 'init_ShelterA_1_87': 791.0, 'init_ShelterA_1_88': 804.0, 'init_ShelterA_1_89': 807.0, 'init_ShelterA_1_90': 830.0, 'init_ShelterA_1_91': 832.0, 'init_ShelterA_1_92': 835.0, 'init_ShelterA_1_95': 839.0, 'init_ShelterA_1_96': 845.0, 'init_ShelterA_1_98': 847.0, 'init_ShelterA_1_99': 851.0, 'init_ShelterA_1_100': 853.0, 'init_ShelterA_1_101': 856.0, 'init_ShelterA_1_102': 858.0, 'init_ShelterA_1_103': 861.0, 'init_ShelterA_1_104': 864.0, 'init_ShelterA_1_105': 909.0, 'init_ShelterA_1_125': 926.0, 'init_ShelterA_1_126': 931.0, 'init_ShelterA_2_127': 934.0, 'init_ShelterA_2_133': 936.0, 'init_ShelterA_1_106': 942.0, 'init_ShelterA_1_107': 944.0, 'init_ShelterA_1_108': 946.0, 'init_ShelterA_1_109': 949.0, 'init_ShelterA_1_110': 952.0, 'init_ShelterA_1_111': 955.0, 'init_ShelterA_1_112': 958.0, 'init_ShelterA_1_113': 961.0, 'init_ShelterA_1_114': 964.0, 'init_ShelterA_1_115': 967.0, 'init_ShelterA_1_116': 970.0, 'init_ShelterA_1_117': 972.0, 'init_ShelterA_1_118': 975.0, 'init_ShelterA_1_119': 978.0, 'init_ShelterA_1_120': 981.0, 'init_ShelterA_1_121': 984.0, 'init_ShelterA_1_145': 1023.0, 'init_ShelterA_1_122': 1024.0, 'init_ShelterA_1_123': 1026.0, 'init_ShelterA_1_124': 1028.0, 'init_ShelterA_1_128': 1030.0, 'init_ShelterA_1_146': 1031.0, 'init_ShelterA_1_129': 1033.0, 'init_ShelterA_1_130': 1036.0, 'init_ShelterA_1_151': 1036.0, 'init_ShelterA_1_152': 1040.0, 'init_ShelterA_1_131': 1046.0, 'init_ShelterA_1_132': 1047.0, 'init_ShelterA_1_134': 1050.0, 'init_ShelterA_1_135': 1052.0, 'init_ShelterA_1_136': 1054.0, 'init_ShelterA_1_137': 1057.0, 'init_ShelterA_1_138': 1060.0, 'init_ShelterA_2_161': 1088.0, 'init_ShelterA_1_139': 1096.0, 'init_ShelterA_1_140': 1097.0, 'init_ShelterA_1_141': 1100.0, 'init_ShelterA_1_142': 1103.0, 'init_ShelterA_1_143': 1105.0, 'init_ShelterA_2_165': 1105.0, 'init_ShelterA_1_167': 1121.0, 'init_ShelterA_1_144': 1125.0, 'init_ShelterA_1_147': 1126.0, 'init_ShelterA_1_148': 1129.0, 'init_ShelterA_1_149': 1131.0, 'init_ShelterA_1_150': 1133.0, 'init_ShelterA_1_153': 1136.0, 'init_ShelterA_1_154': 1139.0, 'init_ShelterA_1_155': 1172.0, 'init_ShelterA_1_156': 1192.0, 'init_ShelterA_1_157': 1194.0, 'init_ShelterA_1_158': 1196.0, 'init_ShelterA_1_159': 1198.0, 'init_ShelterA_1_160': 1201.0, 'init_ShelterA_1_162': 1204.0, 'init_ShelterA_1_163': 1207.0, 'init_ShelterA_1_164': 1209.0, 'init_ShelterA_1_166': 1212.0, 'init_ShelterA_1_168': 1215.0, 'init_ShelterA_1_212': 1217.0, 'init_ShelterA_1_169': 1219.0, 'init_ShelterA_1_170': 1221.0, 'init_ShelterA_1_213': 1221.0, 'init_ShelterA_2_215': 1223.0, 'init_ShelterA_1_171': 1224.0, 'init_ShelterA_1_172': 1227.0, 'init_ShelterA_1_173': 1258.0, 'init_ShelterA_1_174': 1270.0, 'init_ShelterA_1_175': 1274.0, 'init_ShelterA_1_176': 1276.0, 'init_ShelterA_1_177': 1283.0, 'init_ShelterA_1_178': 1285.0, 'init_ShelterA_1_179': 1288.0, 'init_ShelterA_1_180': 1290.0, 'init_ShelterA_1_181': 1296.0, 'init_ShelterA_1_182': 1298.0, 'init_ShelterA_1_210': 1300.0, 'init_ShelterA_1_211': 1302.0, 'newveh_ShelterA_2_183_2': 1334.0, 'init_ShelterA_1_214': 1336.0, 'init_ShelterA_1_216': 1341.0, 'init_ShelterA_1_217': 1345.0, 'newveh_ShelterA_1_201_28': 1381.0, 'newveh_ShelterA_2_184_3': 1386.0, 'newveh_ShelterA_1_188_27': 1388.0, 'newveh_ShelterA_2_185_4': 1393.0, 'init_ShelterA_1_223': 1394.0, 'newveh_ShelterA_2_187_6': 1399.0, 'newveh_ShelterA_2_186_5': 1404.0, 'newveh_ShelterA_2_190_8': 1409.0, 'newveh_ShelterA_2_189_7': 1415.0, 'newveh_ShelterA_2_191_9': 1422.0, 'newveh_ShelterA_2_192_10': 1429.0, 'newveh_ShelterA_2_193_11': 1436.0, 'newveh_ShelterA_2_194_12': 1444.0, 'newveh_ShelterA_2_195_13': 1453.0, 'init_ShelterA_1_235': 1454.0, 'newveh_ShelterA_2_196_14': 1462.0, 'init_ShelterA_1_242': 1470.0, 'newveh_ShelterA_2_198_16': 1470.0, 'init_ShelterA_1_246': 1479.0, 'newveh_ShelterA_2_197_15': 1479.0, 'newveh_ShelterA_1_224_29': 1484.0, 'newveh_ShelterA_2_199_17': 1487.0, 'newveh_ShelterA_2_230_68': 1496.0, 'newveh_ShelterA_2_200_18': 1506.0, 'newveh_ShelterA_2_202_19': 1515.0, 'newveh_ShelterA_2_203_20': 1525.0, 'newveh_ShelterA_2_204_21': 1535.0, 'newveh_ShelterA_2_205_22': 1544.0, 'newveh_ShelterA_2_209_26': 1554.0, 'init_ShelterA_1_265': 1558.0, 'init_ShelterA_2_267': 1560.0, 'newveh_ShelterA_2_208_25': 1563.0, 'init_ShelterA_1_271': 1573.0, 'newveh_ShelterA_2_207_24': 1573.0, 'init_ShelterA_2_272': 1576.0, 'newveh_ShelterA_1_253_39': 1581.0, 'newveh_ShelterA_2_206_23': 1594.0, 'init_ShelterA_1_218': 1596.0, 'init_ShelterA_1_222': 1599.0, 'init_ShelterA_1_225': 1601.0, 'init_ShelterA_1_231': 1603.0, 'init_ShelterA_1_234': 1605.0, 'newveh_ShelterA_2_229_67': 1624.0, 'init_ShelterA_1_236': 1626.0, 'init_ShelterA_1_238': 1628.0, 'init_ShelterA_1_239': 1631.0, 'init_ShelterA_1_240': 1633.0, 'init_ShelterA_1_241': 1635.0, 'init_ShelterA_1_243': 1637.0, 'init_ShelterA_1_288': 1639.0, 'init_ShelterA_1_244': 1640.0, 'init_ShelterA_1_245': 1643.0, 'newveh_ShelterA_2_219_30': 1650.0, 'newveh_ShelterA_2_233_34': 1656.0, 'newveh_ShelterA_2_232_33': 1665.0, 'newveh_ShelterA_2_221_35': 1674.0, 'newveh_ShelterA_2_226_32': 1683.0, 'newveh_ShelterA_2_220_31': 1693.0, 'newveh_ShelterA_2_237_38': 1702.0, 'init_ShelterA_1_266': 1705.0, 'newveh_ShelterA_2_227_36': 1715.0, 'newveh_ShelterA_2_228_37': 1729.0, 'init_ShelterA_1_268': 1731.0, 'init_ShelterA_1_269': 1734.0, 'init_ShelterA_1_270': 1736.0, 'init_ShelterA_1_296': 1739.0, 'newveh_ShelterA_2_247_40': 1744.0, 'init_ShelterA_1_297': 1749.0, 'newveh_ShelterA_2_248_42': 1753.0, 'init_ShelterA_1_283': 1755.0, 'init_ShelterA_1_298': 1756.0, 'init_ShelterA_2_300': 1758.0, 'newveh_ShelterA_2_284_82': 1764.0, 'init_ShelterA_1_301': 1766.0, 'newveh_ShelterA_2_286_84': 1773.0, 'newveh_ShelterA_1_277_57': 1775.0, 'newveh_ShelterA_2_285_83': 1783.0, 'init_ShelterA_1_314': 1784.0, 'init_ShelterA_2_315': 1786.0, 'init_ShelterA_2_318': 1788.0, 'newveh_ShelterA_2_252_41': 1792.0, 'init_ShelterA_1_319': 1793.0, 'newveh_ShelterA_2_264_44': 1801.0, 'newveh_ShelterA_2_263_43': 1823.0, 'init_ShelterA_1_287': 1826.0, 'init_ShelterA_1_289': 1828.0, 'init_ShelterA_1_290': 1830.0, 'init_ShelterA_1_291': 1832.0, 'init_ShelterA_1_292': 1834.0, 'init_ShelterA_1_293': 1836.0, 'newveh_ShelterA_2_249_45': 1844.0, 'newveh_ShelterA_2_262_56': 1849.0, 'newveh_ShelterA_2_261_55': 1857.0, 'newveh_ShelterA_2_260_54': 1866.0, 'newveh_ShelterA_2_259_53': 1875.0, 'newveh_ShelterA_2_258_52': 1885.0, 'newveh_ShelterA_2_313_107': 1894.0, 'init_ShelterA_2_347': 1897.0, 'newveh_ShelterA_2_312_106': 1904.0, 'init_ShelterA_1_348': 1914.0, 'newveh_ShelterA_2_257_51': 1914.0, 'newveh_ShelterA_1_295_70': 1918.0, 'init_ShelterA_2_358': 1921.0, 'newveh_ShelterA_2_256_50': 1923.0, 'init_ShelterA_1_359': 1933.0, 'newveh_ShelterA_2_255_49': 1933.0, 'init_ShelterA_1_363': 1940.0, 'init_ShelterA_2_365': 1942.0, 'newveh_ShelterA_2_254_48': 1943.0, 'init_ShelterA_2_366': 1944.0, 'newveh_ShelterA_2_251_47': 1952.0, 'newveh_ShelterA_2_250_46': 1962.0, 'newveh_ShelterA_2_273_58': 1972.0, 'newveh_ShelterA_2_311_105': 1982.0, 'newveh_ShelterA_2_316_109': 1991.0, 'newveh_ShelterA_2_340_118': 2001.0, 'newveh_ShelterA_2_339_117': 2011.0, 'init_ShelterA_1_378': 2020.0, 'newveh_ShelterA_2_338_116': 2020.0, 'newveh_ShelterA_1_317_81': 2030.0, 'newveh_ShelterA_2_337_115': 2030.0, 'newveh_ShelterA_2_326_114': 2040.0, 'newveh_ShelterA_2_324_113': 2049.0, 'newveh_ShelterA_2_282_66': 2059.0, 'newveh_ShelterA_2_281_65': 2069.0, 'newveh_ShelterA_2_280_64': 2078.0, 'newveh_ShelterA_2_279_63': 2088.0, 'init_ShelterA_1_387': 2089.0, 'newveh_ShelterA_2_278_62': 2097.0, 'newveh_ShelterA_2_276_61': 2107.0, 'newveh_ShelterA_1_330_90': 2109.0, 'newveh_ShelterA_2_275_60': 2116.0, 'newveh_ShelterA_1_323_89': 2118.0, 'newveh_ShelterA_2_274_59': 2129.0, 'init_ShelterA_1_321': 2131.0, 'init_ShelterA_1_327': 2133.0, 'init_ShelterA_1_329': 2135.0, 'newveh_ShelterA_2_294_69': 2155.0, 'init_ShelterA_1_336': 2157.0, 'init_ShelterA_1_341': 2159.0, 'init_ShelterA_1_342': 2162.0, 'init_ShelterA_1_343': 2164.0, 'init_ShelterA_1_344': 2166.0, 'newveh_ShelterA_2_361_131': 2175.0, 'init_ShelterA_1_345': 2177.0, 'init_ShelterA_1_346': 2179.0, 'newveh_ShelterA_1_362_108': 2189.0, 'newveh_ShelterA_1_377_111': 2197.0, 'newveh_ShelterA_2_299_71': 2200.0, 'newveh_ShelterA_1_384_119': 2201.0, 'init_ShelterA_1_360': 2203.0, 'init_ShelterA_1_364': 2205.0, 'init_ShelterA_1_367': 2207.0, 'init_ShelterA_1_368': 2209.0, 'newveh_ShelterA_1_393_121': 2210.0, 'newveh_ShelterA_2_302_73': 2217.0, 'init_ShelterA_1_369': 2219.0, 'newveh_ShelterA_2_376_133': 2227.0, 'newveh_ShelterA_2_375_132': 2235.0, 'init_ShelterA_1_370': 2237.0, 'newveh_ShelterA_2_303_72': 2247.0, 'init_ShelterA_1_371': 2249.0, 'init_ShelterA_1_372': 2251.0, 'newveh_ShelterA_2_307_77': 2261.0, 'newveh_ShelterA_2_306_76': 2270.0, 'newveh_ShelterA_2_305_75': 2279.0, 'newveh_ShelterA_2_304_74': 2289.0, 'newveh_ShelterA_2_309_79': 2298.0, 'newveh_ShelterA_2_308_78': 2307.0, 'newveh_ShelterA_2_310_80': 2329.0, 'init_ShelterA_1_374': 2332.0, 'init_ShelterA_1_380': 2334.0, 'init_ShelterA_1_381': 2336.0, 'init_ShelterA_1_382': 2338.0, 'init_ShelterA_1_383': 2340.0, 'init_ShelterA_1_385': 2342.0, 'newveh_ShelterA_2_328_85': 2352.0, 'init_ShelterA_1_395': 2355.0, 'init_ShelterA_1_396': 2357.0, 'newveh_ShelterA_2_320_86': 2364.0, 'newveh_ShelterA_2_331_88': 2372.0, 'newveh_ShelterA_2_334_94': 2381.0, 'newveh_ShelterA_2_333_93': 2390.0, 'newveh_ShelterA_2_332_92': 2399.0, 'newveh_ShelterA_2_335_95': 2409.0, 'newveh_ShelterA_2_325_87': 2419.0, 'newveh_ShelterA_2_322_91': 2428.0, 'newveh_ShelterA_2_357_97': 2438.0, 'newveh_ShelterA_2_349_96': 2448.0, 'newveh_ShelterA_2_350_98': 2457.0, 'newveh_ShelterA_2_351_99': 2467.0, 'newveh_ShelterA_2_352_100': 2477.0, 'newveh_ShelterA_2_353_101': 2486.0, 'newveh_ShelterA_2_354_102': 2496.0, 'newveh_ShelterA_2_355_103': 2506.0, 'newveh_ShelterA_2_356_104': 2515.0, 'newveh_ShelterA_2_373_110': 2525.0, 'newveh_ShelterA_2_379_112': 2535.0, 'newveh_ShelterA_2_386_120': 2544.0, 'newveh_ShelterA_2_388_122': 2554.0, 'newveh_ShelterA_2_399_130': 2564.0, 'newveh_ShelterA_2_398_129': 2573.0, 'newveh_ShelterA_2_397_128': 2583.0, 'newveh_ShelterA_2_394_127': 2593.0, 'newveh_ShelterA_2_392_126': 2601.0, 'newveh_ShelterA_2_391_125': 2608.0, 'newveh_ShelterA_2_390_124': 2612.0, 'newveh_ShelterA_2_389_123': 2617.0}
vehicle_abandant_time_by_pedestrianID_dict:{}
walking_distance_by_pedestrianID_dict:{}
route_change_time_by_vehID_dict:{'init_ShelterA_2_50': 430.0, 'init_ShelterA_2_55': 430.0, 'init_ShelterA_2_64': 430.0, 'init_ShelterA_1_48': 440.0, 'init_ShelterA_1_51': 440.0, 'init_ShelterA_1_62': 440.0, 'init_ShelterA_1_63': 440.0, 'init_ShelterA_1_65': 440.0, 'init_ShelterA_2_67': 440.0, 'init_ShelterA_1_57': 450.0, 'init_ShelterA_1_58': 450.0, 'init_ShelterA_1_60': 450.0, 'init_ShelterA_1_61': 450.0, 'init_ShelterA_1_56': 460.0, 'init_ShelterA_1_59': 460.0, 'init_ShelterA_1_68': 460.0, 'init_ShelterA_1_69': 460.0, 'init_ShelterA_1_70': 460.0, 'init_ShelterA_2_76': 480.0, 'init_ShelterA_1_71': 490.0, 'init_ShelterA_1_72': 490.0, 'init_ShelterA_1_73': 500.0, 'init_ShelterA_1_77': 510.0, 'init_ShelterA_1_74': 520.0, 'init_ShelterA_1_75': 520.0, 'init_ShelterA_1_78': 520.0, 'init_ShelterA_1_79': 520.0, 'init_ShelterA_1_80': 520.0, 'init_ShelterA_1_81': 520.0, 'init_ShelterA_1_82': 520.0, 'init_ShelterA_1_84': 520.0, 'init_ShelterA_1_86': 520.0, 'init_ShelterA_1_87': 520.0, 'init_ShelterA_2_83': 520.0, 'init_ShelterA_1_85': 530.0, 'init_ShelterA_2_94': 560.0, 'init_ShelterA_1_88': 570.0, 'init_ShelterA_1_90': 580.0, 'init_ShelterA_1_91': 580.0, 'init_ShelterA_2_93': 580.0, 'init_ShelterA_1_89': 590.0, 'init_ShelterA_1_92': 590.0, 'init_ShelterA_1_95': 590.0, 'init_ShelterA_1_96': 590.0, 'init_ShelterA_1_98': 590.0, 'init_ShelterA_1_99': 590.0, 'init_ShelterA_2_97': 590.0, 'init_ShelterA_1_100': 600.0, 'init_ShelterA_1_101': 600.0, 'init_ShelterA_1_103': 600.0, 'init_ShelterA_1_104': 600.0, 'init_ShelterA_1_105': 660.0, 'init_ShelterA_1_102': 670.0, 'init_ShelterA_1_111': 680.0, 'init_ShelterA_1_106': 690.0, 'init_ShelterA_1_107': 690.0, 'init_ShelterA_1_108': 690.0, 'init_ShelterA_1_110': 690.0, 'init_ShelterA_1_112': 690.0, 'init_ShelterA_1_113': 690.0, 'init_ShelterA_1_114': 690.0, 'init_ShelterA_1_115': 690.0, 'init_ShelterA_1_116': 690.0, 'init_ShelterA_1_117': 690.0, 'init_ShelterA_1_118': 690.0, 'init_ShelterA_1_119': 690.0, 'init_ShelterA_1_109': 700.0, 'init_ShelterA_1_121': 700.0, 'init_ShelterA_1_122': 700.0, 'init_ShelterA_2_127': 730.0, 'init_ShelterA_2_133': 730.0, 'init_ShelterA_1_123': 750.0, 'init_ShelterA_1_120': 760.0, 'init_ShelterA_1_124': 760.0, 'init_ShelterA_1_128': 760.0, 'init_ShelterA_1_129': 760.0, 'init_ShelterA_1_134': 770.0, 'init_ShelterA_1_136': 770.0, 'init_ShelterA_1_137': 770.0, 'init_ShelterA_1_138': 770.0, 'init_ShelterA_1_140': 770.0, 'init_ShelterA_1_131': 780.0, 'init_ShelterA_1_132': 780.0, 'init_ShelterA_1_135': 780.0, 'init_ShelterA_1_139': 780.0, 'init_ShelterA_1_130': 790.0, 'init_ShelterA_1_183': 810.0, 'init_ShelterA_1_184': 810.0, 'init_ShelterA_1_185': 810.0, 'init_ShelterA_1_186': 810.0, 'init_ShelterA_1_187': 810.0, 'init_ShelterA_1_189': 810.0, 'init_ShelterA_1_190': 810.0, 'init_ShelterA_1_191': 810.0, 'init_ShelterA_1_192': 810.0, 'init_ShelterA_1_193': 810.0, 'init_ShelterA_1_194': 810.0, 'init_ShelterA_1_195': 810.0, 'init_ShelterA_1_196': 810.0, 'init_ShelterA_1_197': 810.0, 'init_ShelterA_1_198': 810.0, 'init_ShelterA_1_199': 810.0, 'init_ShelterA_1_200': 810.0, 'init_ShelterA_1_202': 810.0, 'init_ShelterA_1_203': 810.0, 'init_ShelterA_1_204': 810.0, 'init_ShelterA_1_205': 810.0, 'init_ShelterA_1_206': 810.0, 'init_ShelterA_1_207': 810.0, 'init_ShelterA_1_208': 810.0, 'init_ShelterA_1_209': 810.0, 'init_ShelterA_2_188': 810.0, 'init_ShelterA_2_201': 810.0, 'init_ShelterA_1_141': 830.0, 'init_ShelterA_1_142': 830.0, 'init_ShelterA_1_143': 830.0, 'init_ShelterA_1_144': 840.0, 'init_ShelterA_1_147': 850.0, 'init_ShelterA_1_148': 850.0, 'init_ShelterA_1_149': 850.0, 'init_ShelterA_1_150': 850.0, 'init_ShelterA_1_153': 860.0, 'init_ShelterA_1_156': 870.0, 'init_ShelterA_1_157': 870.0, 'init_ShelterA_1_158': 870.0, 'init_ShelterA_1_154': 880.0, 'init_ShelterA_1_159': 900.0, 'init_ShelterA_1_160': 900.0, 'init_ShelterA_2_161': 900.0, 'init_ShelterA_1_162': 910.0, 'init_ShelterA_1_163': 910.0, 'init_ShelterA_1_164': 910.0, 'init_ShelterA_2_165': 910.0, 'init_ShelterA_1_155': 920.0, 'init_ShelterA_1_166': 920.0, 'init_ShelterA_1_168': 920.0, 'init_ShelterA_1_170': 920.0, 'init_ShelterA_1_169': 930.0, 'init_ShelterA_1_171': 940.0, 'init_ShelterA_1_173': 940.0, 'init_ShelterA_1_175': 940.0, 'init_ShelterA_1_174': 950.0, 'init_ShelterA_1_176': 950.0, 'init_ShelterA_2_224': 960.0, 'init_ShelterA_1_219': 970.0, 'init_ShelterA_1_220': 970.0, 'init_ShelterA_1_226': 970.0, 'init_ShelterA_1_232': 970.0, 'init_ShelterA_1_233': 970.0, 'init_ShelterA_1_221': 980.0, 'init_ShelterA_1_227': 980.0, 'init_ShelterA_1_228': 980.0, 'init_ShelterA_1_237': 980.0, 'init_ShelterA_1_177': 990.0, 'init_ShelterA_1_178': 990.0, 'init_ShelterA_1_179': 990.0, 'init_ShelterA_1_172': 1020.0, 'init_ShelterA_1_180': 1020.0, 'init_ShelterA_1_181': 1020.0, 'init_ShelterA_1_182': 1020.0, 'init_ShelterA_1_210': 1020.0, 'init_ShelterA_1_211': 1020.0, 'init_ShelterA_1_214': 1030.0, 'init_ShelterA_2_215': 1030.0, 'init_ShelterA_2_253': 1030.0, 'init_ShelterA_1_216': 1040.0, 'init_ShelterA_1_217': 1040.0, 'init_ShelterA_1_247': 1040.0, 'init_ShelterA_1_252': 1040.0, 'init_ShelterA_1_248': 1050.0, 'init_ShelterA_1_263': 1060.0, 'init_ShelterA_1_264': 1060.0, 'init_ShelterA_1_249': 1070.0, 'init_ShelterA_1_250': 1070.0, 'init_ShelterA_1_251': 1070.0, 'init_ShelterA_1_254': 1070.0, 'init_ShelterA_1_255': 1070.0, 'init_ShelterA_1_256': 1070.0, 'init_ShelterA_1_257': 1070.0, 'init_ShelterA_1_258': 1070.0, 'init_ShelterA_1_259': 1070.0, 'init_ShelterA_1_260': 1070.0, 'init_ShelterA_1_261': 1070.0, 'init_ShelterA_1_262': 1070.0, 'init_ShelterA_2_277': 1120.0, 'init_ShelterA_1_273': 1150.0, 'init_ShelterA_1_274': 1150.0, 'init_ShelterA_1_275': 1150.0, 'init_ShelterA_1_276': 1150.0, 'init_ShelterA_1_278': 1150.0, 'init_ShelterA_1_279': 1150.0, 'init_ShelterA_1_280': 1150.0, 'init_ShelterA_1_281': 1150.0, 'init_ShelterA_1_282': 1150.0, 'init_ShelterA_1_218': 1170.0, 'init_ShelterA_1_229': 1180.0, 'init_ShelterA_1_230': 1180.0, 'init_ShelterA_1_240': 1210.0, 'init_ShelterA_1_294': 1210.0, 'init_ShelterA_1_244': 1260.0, 'init_ShelterA_2_295': 1260.0, 'init_ShelterA_1_222': 1270.0, 'init_ShelterA_1_225': 1270.0, 'init_ShelterA_1_231': 1270.0, 'init_ShelterA_1_299': 1270.0, 'init_ShelterA_1_236': 1280.0, 'init_ShelterA_1_238': 1280.0, 'init_ShelterA_1_234': 1290.0, 'init_ShelterA_1_241': 1290.0, 'init_ShelterA_1_243': 1290.0, 'init_ShelterA_1_245': 1290.0, 'init_ShelterA_1_239': 1300.0, 'init_ShelterA_1_266': 1300.0, 'init_ShelterA_1_303': 1310.0, 'init_ShelterA_1_302': 1320.0, 'init_ShelterA_1_304': 1320.0, 'init_ShelterA_1_305': 1320.0, 'init_ShelterA_1_306': 1320.0, 'init_ShelterA_1_307': 1320.0, 'init_ShelterA_1_308': 1320.0, 'init_ShelterA_1_309': 1320.0, 'init_ShelterA_1_310': 1320.0, 'init_ShelterA_2_267': 1320.0, 'init_ShelterA_1_269': 1330.0, 'init_ShelterA_1_270': 1330.0, 'init_ShelterA_1_268': 1340.0, 'init_ShelterA_2_272': 1340.0, 'init_ShelterA_2_317': 1340.0, 'init_ShelterA_1_284': 1350.0, 'init_ShelterA_2_318': 1350.0, 'init_ShelterA_1_285': 1360.0, 'init_ShelterA_1_286': 1360.0, 'init_ShelterA_1_289': 1390.0, 'init_ShelterA_1_291': 1390.0, 'init_ShelterA_1_328': 1390.0, 'init_ShelterA_1_320': 1400.0, 'init_ShelterA_1_325': 1400.0, 'init_ShelterA_1_331': 1400.0, 'init_ShelterA_2_323': 1400.0, 'init_ShelterA_2_330': 1400.0, 'init_ShelterA_1_322': 1410.0, 'init_ShelterA_1_332': 1410.0, 'init_ShelterA_1_333': 1410.0, 'init_ShelterA_1_334': 1410.0, 'init_ShelterA_1_335': 1410.0, 'init_ShelterA_1_287': 1430.0, 'init_ShelterA_1_292': 1430.0, 'init_ShelterA_1_293': 1430.0, 'init_ShelterA_1_283': 1460.0, 'init_ShelterA_1_290': 1470.0, 'init_ShelterA_1_349': 1490.0, 'init_ShelterA_1_357': 1490.0, 'init_ShelterA_1_350': 1500.0, 'init_ShelterA_1_351': 1500.0, 'init_ShelterA_1_352': 1500.0, 'init_ShelterA_1_353': 1500.0, 'init_ShelterA_1_354': 1500.0, 'init_ShelterA_1_355': 1500.0, 'init_ShelterA_1_356': 1500.0, 'init_ShelterA_2_300': 1500.0, 'init_ShelterA_1_311': 1520.0, 'init_ShelterA_1_312': 1520.0, 'init_ShelterA_1_313': 1520.0, 'init_ShelterA_2_315': 1520.0, 'init_ShelterA_2_362': 1520.0, 'init_ShelterA_1_316': 1530.0, 'init_ShelterA_2_358': 1530.0, 'init_ShelterA_2_365': 1550.0, 'init_ShelterA_1_321': 1560.0, 'init_ShelterA_1_341': 1570.0, 'init_ShelterA_1_373': 1580.0, 'init_ShelterA_2_377': 1580.0, 'init_ShelterA_1_379': 1590.0, 'init_ShelterA_1_327': 1600.0, 'init_ShelterA_1_329': 1600.0, 'init_ShelterA_1_336': 1600.0, 'init_ShelterA_1_324': 1610.0, 'init_ShelterA_1_326': 1610.0, 'init_ShelterA_1_337': 1610.0, 'init_ShelterA_1_338': 1610.0, 'init_ShelterA_1_339': 1610.0, 'init_ShelterA_1_340': 1610.0, 'init_ShelterA_2_384': 1620.0, 'init_ShelterA_1_342': 1640.0, 'init_ShelterA_1_344': 1640.0, 'init_ShelterA_1_346': 1640.0, 'init_ShelterA_1_360': 1650.0, 'init_ShelterA_1_364': 1650.0, 'init_ShelterA_1_386': 1650.0, 'init_ShelterA_2_393': 1650.0, 'init_ShelterA_1_343': 1670.0, 'init_ShelterA_1_388': 1670.0, 'init_ShelterA_1_389': 1670.0, 'init_ShelterA_1_390': 1670.0, 'init_ShelterA_1_391': 1670.0, 'init_ShelterA_1_392': 1670.0, 'init_ShelterA_1_394': 1670.0, 'init_ShelterA_1_397': 1680.0, 'init_ShelterA_1_398': 1680.0, 'init_ShelterA_1_399': 1680.0, 'init_ShelterA_1_345': 1690.0, 'init_ShelterA_2_347': 1690.0, 'init_ShelterA_2_366': 1700.0, 'init_ShelterA_1_361': 1710.0, 'init_ShelterA_1_369': 1770.0, 'init_ShelterA_1_370': 1780.0, 'init_ShelterA_1_371': 1790.0, 'init_ShelterA_1_375': 1790.0, 'init_ShelterA_1_376': 1790.0, 'init_ShelterA_1_367': 1810.0, 'init_ShelterA_1_368': 1820.0, 'init_ShelterA_1_372': 1830.0, 'init_ShelterA_1_382': 1860.0, 'init_ShelterA_1_374': 1870.0, 'init_ShelterA_1_385': 1870.0, 'init_ShelterA_1_395': 1870.0, 'init_ShelterA_1_396': 1870.0, 'init_ShelterA_1_381': 1880.0, 'init_ShelterA_1_380': 1900.0, 'init_ShelterA_1_383': 1920.0}
pedestrian_count:0
route_changed_vehicle_count:320
route_change_event_count:320
rate_vehicle_abandonment:0.00%
wrong_way_driving_count:0
vehicle_abandonment_count:0
normalcy_bias_route_change_count:225
majority_bias_route_change_count:95
lane_changed_vehicle_count:0
info_obtained_lanechange_count:0
elapsed_time_lanechange_count:0
majority_bias_lanechange_count:0

=== Job Result ===
end=2026-07-13T01:58:48+0900
elapsed_seconds=353
exit_code=0
status=SUCCESS
