=== Job Info ===
job_name=va_s12_e1.0_v1.0_r37
host=schubert
pid=137582
scenario=12
early_rate=1.0
v2v_rate=1.0
run_id=37
config=/home/katagi/vehicle-assistant-system/scenarios/JIP/configs/config_scenario_12.toml
output_dir=/home/katagi/vehicle-assistant-system/schubert_logs/va_s12_e1.0_v1.0_r37
start=2026-07-13T03:21:00+0900
python_version=Python 3.12.3
sumo_version=Eclipse SUMO sumo Version v1_23_1+0435-630512a

=== Command ===
cd /home/katagi/vehicle-assistant-system/schubert_logs/va_s12_e1.0_v1.0_r37
PYTHONPATH=/home/katagi/vehicle-assistant-system:/home/katagi/tmp/sumo/tools:/home/katagi/local/sumo/tools:/home/katagi/tmp/sumo/tools:/home/katagi/local/sumo/tools:/home/katagi/tmp/sumo/tools:/home/katagi/local/sumo/tools: python3 -W ignore::UserWarning -m scenarios.JIP.1-1-4.simulation.runner_simulator --nogui /home/katagi/vehicle-assistant-system/scenarios/JIP/configs/config_scenario_12.toml 1.0 1.0
simulation_pid=137602
Step #0.00 (0ms ?*RT. ?UPS, TraCI: 339ms, vehicles TOT 1 ACT 1 BUF 0)                     Step #100.00 (0ms ?*RT. ?UPS, TraCI: 18ms, vehicles TOT 26 ACT 26 BUF 0)                  Step #200.00 (1ms ~= 1000.00*RT, ~51000.00UPS, TraCI: 36ms, vehicles TOT 51 ACT 51 BUF 0) Step #300.00 (0ms ?*RT. ?UPS, TraCI: 56ms, vehicles TOT 77 ACT 77 BUF 0)                  Step #400.00 (1ms ~= 1000.00*RT, ~104000.00UPS, TraCI: 907ms, vehicles TOT 105 ACT 104 BUFStep #500.00 (1ms ~= 1000.00*RT, ~131000.00UPS, TraCI: 1154ms, vehicles TOT 132 ACT 131 BUStep #600.00 (1ms ~= 1000.00*RT, ~158000.00UPS, TraCI: 820ms, vehicles TOT 159 ACT 158 BUFStep #700.00 (1ms ~= 1000.00*RT, ~186000.00UPS, TraCI: 143ms, vehicles TOT 187 ACT 186 BUFStep #800.00 (1ms ~= 1000.00*RT, ~209000.00UPS, TraCI: 200ms, vehicles TOT 210 ACT 209 BUFStep #900.00 (1ms ~= 1000.00*RT, ~210000.00UPS, TraCI: 1137ms, vehicles TOT 238 ACT 210 BUStep #1000.00 (0ms ?*RT. ?UPS, TraCI: 1232ms, vehicles TOT 273 ACT 233 BUF 41)            Step #1100.00 (1ms ~= 1000.00*RT, ~255000.00UPS, TraCI: 288ms, vehicles TOT 300 ACT 255 BUStep #1200.00 (0ms ?*RT. ?UPS, TraCI: 1523ms, vehicles TOT 323 ACT 275 BUF 61)            Step #1300.00 (0ms ?*RT. ?UPS, TraCI: 2179ms, vehicles TOT 359 ACT 301 BUF 67)            Step #1400.00 (1ms ~= 1000.00*RT, ~321000.00UPS, TraCI: 1921ms, vehicles TOT 386 ACT 321 BStep #1500.00 (1ms ~= 1000.00*RT, ~336000.00UPS, TraCI: 1899ms, vehicles TOT 412 ACT 336 BStep #1600.00 (1ms ~= 1000.00*RT, ~359000.00UPS, TraCI: 1463ms, vehicles TOT 453 ACT 359 BStep #1700.00 (1ms ~= 1000.00*RT, ~382000.00UPS, TraCI: 573ms, vehicles TOT 495 ACT 382 BUStep #1800.00 (1ms ~= 1000.00*RT, ~400000.00UPS, TraCI: 1280ms, vehicles TOT 513 ACT 400 BStep #1900.00 (1ms ~= 1000.00*RT, ~400000.00UPS, TraCI: 651ms, vehicles TOT 513 ACT 400 BUStep #2000.00 (1ms ~= 1000.00*RT, ~400000.00UPS, TraCI: 336ms, vehicles TOT 513 ACT 400 BUStep #2100.00 (1ms ~= 1000.00*RT, ~400000.00UPS, TraCI: 111ms, vehicles TOT 513 ACT 400 BUStep #2200.00 (0ms ?*RT. ?UPS, TraCI: 101ms, vehicles TOT 513 ACT 400 BUF 0)              Step #2300.00 (0ms ?*RT. ?UPS, TraCI: 99ms, vehicles TOT 513 ACT 400 BUF 0)               Step #2400.00 (1ms ~= 1000.00*RT, ~400000.00UPS, TraCI: 92ms, vehicles TOT 513 ACT 400 BUFStep #2500.00 (0ms ?*RT. ?UPS, TraCI: 79ms, vehicles TOT 513 ACT 400 BUF 0)               Step #2600.00 (0ms ?*RT. ?UPS, TraCI: 79ms, vehicles TOT 513 ACT 400 BUF 0)               Step #2700.00 (0ms ?*RT. ?UPS, TraCI: 78ms, vehicles TOT 513 ACT 400 BUF 0)               Step #2800.00 (0ms ?*RT. ?UPS, TraCI: 79ms, vehicles TOT 513 ACT 400 BUF 0)               Step #2900.00 (0ms ?*RT. ?UPS, TraCI: 78ms, vehicles TOT 513 ACT 400 BUF 0)               Step #3000.00 (0ms ?*RT. ?UPS, TraCI: 79ms, vehicles TOT 513 ACT 400 BUF 0)               
 Retrying in 1 seconds
出現数: {'A1': 358, 'A2': 42}
割合:
  Total: 400
  A1: 358 (89.50%)
  A2: 42 (10.50%)
  B1: 0 (0.00%)
  B2: 0 (0.00%)
mean elapsed_time: 556.2425
OK all vehs arrived 
平均渋滞継続時間: 463.64秒
OK all vehicle abandonment were detected
271
129
===== Simlation Result Summary =====
avg_congestion_duration: 463.64 
arrival_time_by_vehID_dict:{'init_ShelterA_1_0': 228.0, 'init_ShelterA_1_2': 235.0, 'init_ShelterA_1_3': 241.0, 'init_ShelterA_1_4': 246.0, 'init_ShelterA_1_5': 251.0, 'init_ShelterA_1_6': 283.0, 'init_ShelterA_1_7': 297.0, 'init_ShelterA_1_8': 304.0, 'init_ShelterA_1_9': 309.0, 'init_ShelterA_1_10': 315.0, 'init_ShelterA_1_12': 320.0, 'init_ShelterA_1_13': 326.0, 'init_ShelterA_2_1': 331.0, 'init_ShelterA_1_14': 332.0, 'init_ShelterA_1_15': 339.0, 'init_ShelterA_1_16': 346.0, 'init_ShelterA_1_17': 355.0, 'init_ShelterA_1_18': 364.0, 'init_ShelterA_1_19': 371.0, 'init_ShelterA_1_20': 380.0, 'init_ShelterA_1_21': 389.0, 'init_ShelterA_2_11': 390.0, 'init_ShelterA_1_22': 398.0, 'init_ShelterA_1_23': 408.0, 'init_ShelterA_1_25': 418.0, 'init_ShelterA_1_26': 428.0, 'init_ShelterA_1_27': 437.0, 'init_ShelterA_1_28': 447.0, 'init_ShelterA_1_29': 457.0, 'init_ShelterA_1_30': 466.0, 'init_ShelterA_2_24': 469.0, 'init_ShelterA_1_31': 476.0, 'init_ShelterA_1_33': 486.0, 'init_ShelterA_2_32': 492.0, 'init_ShelterA_1_34': 495.0, 'init_ShelterA_1_35': 505.0, 'init_ShelterA_2_37': 507.0, 'init_ShelterA_1_38': 517.0, 'init_ShelterA_1_39': 527.0, 'init_ShelterA_1_40': 537.0, 'newveh_ShelterA_1_36_0': 546.0, 'init_ShelterA_1_41': 556.0, 'init_ShelterA_1_42': 565.0, 'init_ShelterA_1_43': 566.0, 'init_ShelterA_1_44': 569.0, 'init_ShelterA_1_48': 572.0, 'init_ShelterA_1_49': 575.0, 'init_ShelterA_1_45': 577.0, 'init_ShelterA_1_50': 577.0, 'init_ShelterA_1_51': 580.0, 'init_ShelterA_2_46': 580.0, 'init_ShelterA_2_47': 582.0, 'init_ShelterA_1_52': 583.0, 'init_ShelterA_2_61': 584.0, 'init_ShelterA_1_53': 586.0, 'init_ShelterA_2_68': 587.0, 'init_ShelterA_1_54': 589.0, 'init_ShelterA_1_55': 593.0, 'init_ShelterA_1_56': 595.0, 'init_ShelterA_1_57': 598.0, 'init_ShelterA_1_58': 641.0, 'init_ShelterA_2_77': 643.0, 'init_ShelterA_1_59': 648.0, 'init_ShelterA_2_83': 649.0, 'init_ShelterA_1_60': 651.0, 'init_ShelterA_1_62': 653.0, 'init_ShelterA_1_63': 656.0, 'init_ShelterA_1_64': 659.0, 'init_ShelterA_1_65': 662.0, 'init_ShelterA_1_66': 665.0, 'init_ShelterA_1_84': 666.0, 'init_ShelterA_1_67': 668.0, 'init_ShelterA_2_87': 669.0, 'init_ShelterA_2_88': 671.0, 'init_ShelterA_1_69': 676.0, 'init_ShelterA_1_70': 679.0, 'init_ShelterA_1_71': 682.0, 'init_ShelterA_1_72': 696.0, 'init_ShelterA_1_73': 698.0, 'init_ShelterA_1_74': 701.0, 'init_ShelterA_1_75': 734.0, 'init_ShelterA_1_76': 736.0, 'init_ShelterA_1_78': 744.0, 'init_ShelterA_2_100': 744.0, 'init_ShelterA_1_79': 746.0, 'init_ShelterA_2_101': 746.0, 'init_ShelterA_2_102': 748.0, 'init_ShelterA_1_80': 749.0, 'init_ShelterA_1_81': 752.0, 'init_ShelterA_1_82': 755.0, 'init_ShelterA_1_85': 758.0, 'init_ShelterA_1_86': 762.0, 'init_ShelterA_1_89': 765.0, 'init_ShelterA_1_90': 767.0, 'init_ShelterA_1_91': 778.0, 'init_ShelterA_1_92': 825.0, 'init_ShelterA_1_93': 830.0, 'init_ShelterA_1_94': 832.0, 'init_ShelterA_1_95': 834.0, 'init_ShelterA_1_96': 849.0, 'init_ShelterA_1_97': 851.0, 'init_ShelterA_1_98': 853.0, 'init_ShelterA_1_99': 856.0, 'init_ShelterA_1_103': 859.0, 'init_ShelterA_1_104': 862.0, 'init_ShelterA_1_105': 865.0, 'init_ShelterA_1_106': 868.0, 'init_ShelterA_1_107': 871.0, 'init_ShelterA_1_108': 874.0, 'init_ShelterA_2_126': 904.0, 'init_ShelterA_1_109': 912.0, 'init_ShelterA_1_110': 914.0, 'init_ShelterA_1_111': 916.0, 'init_ShelterA_1_112': 922.0, 'init_ShelterA_1_113': 925.0, 'init_ShelterA_1_134': 932.0, 'init_ShelterA_1_114': 947.0, 'init_ShelterA_1_115': 949.0, 'init_ShelterA_1_139': 949.0, 'init_ShelterA_1_116': 951.0, 'init_ShelterA_1_117': 953.0, 'init_ShelterA_1_118': 956.0, 'init_ShelterA_1_119': 959.0, 'init_ShelterA_1_120': 962.0, 'init_ShelterA_1_121': 965.0, 'init_ShelterA_1_122': 968.0, 'init_ShelterA_1_123': 971.0, 'init_ShelterA_1_124': 974.0, 'init_ShelterA_1_125': 977.0, 'init_ShelterA_1_127': 983.0, 'init_ShelterA_1_128': 991.0, 'init_ShelterA_2_145': 992.0, 'init_ShelterA_1_129': 1008.0, 'init_ShelterA_1_130': 1010.0, 'init_ShelterA_1_131': 1014.0, 'init_ShelterA_1_132': 1016.0, 'init_ShelterA_2_157': 1023.0, 'init_ShelterA_1_133': 1029.0, 'init_ShelterA_1_135': 1031.0, 'init_ShelterA_1_136': 1035.0, 'init_ShelterA_1_137': 1037.0, 'init_ShelterA_1_138': 1039.0, 'init_ShelterA_1_140': 1041.0, 'init_ShelterA_1_141': 1048.0, 'init_ShelterA_1_142': 1050.0, 'init_ShelterA_1_143': 1083.0, 'init_ShelterA_1_144': 1087.0, 'init_ShelterA_1_146': 1089.0, 'init_ShelterA_1_147': 1097.0, 'init_ShelterA_2_165': 1099.0, 'init_ShelterA_1_148': 1100.0, 'init_ShelterA_1_149': 1104.0, 'init_ShelterA_2_169': 1105.0, 'init_ShelterA_1_150': 1116.0, 'init_ShelterA_1_171': 1125.0, 'init_ShelterA_1_151': 1151.0, 'init_ShelterA_1_152': 1154.0, 'init_ShelterA_1_153': 1156.0, 'init_ShelterA_1_154': 1158.0, 'init_ShelterA_1_155': 1160.0, 'init_ShelterA_1_156': 1162.0, 'init_ShelterA_1_158': 1165.0, 'init_ShelterA_1_159': 1168.0, 'init_ShelterA_2_183': 1185.0, 'init_ShelterA_2_184': 1190.0, 'init_ShelterA_1_160': 1191.0, 'init_ShelterA_1_161': 1193.0, 'init_ShelterA_1_162': 1198.0, 'init_ShelterA_1_163': 1200.0, 'init_ShelterA_1_164': 1202.0, 'init_ShelterA_1_166': 1204.0, 'init_ShelterA_1_167': 1207.0, 'init_ShelterA_1_168': 1210.0, 'init_ShelterA_1_170': 1248.0, 'init_ShelterA_1_172': 1250.0, 'init_ShelterA_1_173': 1252.0, 'init_ShelterA_1_174': 1254.0, 'init_ShelterA_1_175': 1259.0, 'init_ShelterA_1_176': 1286.0, 'init_ShelterA_1_177': 1288.0, 'init_ShelterA_1_178': 1290.0, 'init_ShelterA_1_179': 1292.0, 'init_ShelterA_1_180': 1294.0, 'init_ShelterA_1_181': 1297.0, 'init_ShelterA_1_182': 1300.0, 'init_ShelterA_1_212': 1303.0, 'init_ShelterA_1_213': 1306.0, 'init_ShelterA_1_214': 1309.0, 'init_ShelterA_1_215': 1312.0, 'init_ShelterA_1_216': 1315.0, 'init_ShelterA_1_217': 1332.0, 'newveh_ShelterA_2_187_1': 1350.0, 'newveh_ShelterA_1_185_25': 1374.0, 'newveh_ShelterA_2_188_2': 1380.0, 'newveh_ShelterA_1_205_27': 1384.0, 'newveh_ShelterA_2_189_3': 1387.0, 'newveh_ShelterA_1_186_26': 1389.0, 'init_ShelterA_2_222': 1391.0, 'newveh_ShelterA_2_190_4': 1395.0, 'newveh_ShelterA_2_191_5': 1400.0, 'newveh_ShelterA_2_192_6': 1404.0, 'newveh_ShelterA_2_193_7': 1410.0, 'newveh_ShelterA_2_194_8': 1417.0, 'newveh_ShelterA_2_195_9': 1422.0, 'newveh_ShelterA_2_196_10': 1427.0, 'newveh_ShelterA_2_197_11': 1432.0, 'newveh_ShelterA_2_198_12': 1438.0, 'newveh_ShelterA_2_199_13': 1444.0, 'newveh_ShelterA_2_200_14': 1451.0, 'newveh_ShelterA_2_201_15': 1457.0, 'newveh_ShelterA_2_202_16': 1462.0, 'init_ShelterA_1_234': 1466.0, 'newveh_ShelterA_2_203_17': 1470.0, 'newveh_ShelterA_2_206_19': 1474.0, 'newveh_ShelterA_2_204_18': 1479.0, 'newveh_ShelterA_2_207_20': 1487.0, 'newveh_ShelterA_2_208_21': 1496.0, 'newveh_ShelterA_2_209_22': 1500.0, 'newveh_ShelterA_2_211_24': 1513.0, 'newveh_ShelterA_2_210_23': 1534.0, 'init_ShelterA_1_218': 1537.0, 'init_ShelterA_1_219': 1539.0, 'init_ShelterA_1_220': 1541.0, 'init_ShelterA_1_221': 1543.0, 'init_ShelterA_1_226': 1545.0, 'newveh_ShelterA_2_255_57': 1553.0, 'newveh_ShelterA_2_248_56': 1558.0, 'init_ShelterA_1_263': 1561.0, 'newveh_ShelterA_2_246_55': 1563.0, 'init_ShelterA_1_265': 1566.0, 'init_ShelterA_1_230': 1573.0, 'init_ShelterA_1_231': 1575.0, 'init_ShelterA_1_232': 1577.0, 'newveh_ShelterA_1_236_32': 1577.0, 'init_ShelterA_1_233': 1579.0, 'init_ShelterA_1_241': 1581.0, 'init_ShelterA_1_242': 1587.0, 'init_ShelterA_1_243': 1589.0, 'init_ShelterA_1_244': 1591.0, 'init_ShelterA_1_245': 1593.0, 'init_ShelterA_1_247': 1595.0, 'init_ShelterA_1_249': 1597.0, 'init_ShelterA_1_250': 1600.0, 'init_ShelterA_1_251': 1602.0, 'init_ShelterA_1_257': 1633.0, 'init_ShelterA_2_275': 1634.0, 'init_ShelterA_1_259': 1635.0, 'newveh_ShelterA_2_273_64': 1652.0, 'newveh_ShelterA_2_224_29': 1660.0, 'init_ShelterA_1_281': 1666.0, 'init_ShelterA_1_284': 1671.0, 'newveh_ShelterA_2_223_28': 1681.0, 'init_ShelterA_1_260': 1683.0, 'init_ShelterA_1_261': 1685.0, 'init_ShelterA_1_262': 1687.0, 'init_ShelterA_1_264': 1689.0, 'newveh_ShelterA_2_225_30': 1697.0, 'init_ShelterA_1_266': 1699.0, 'newveh_ShelterA_2_228_31': 1707.0, 'init_ShelterA_1_267': 1710.0, 'newveh_ShelterA_2_227_33': 1718.0, 'init_ShelterA_1_289': 1722.0, 'newveh_ShelterA_2_238_37': 1726.0, 'newveh_ShelterA_2_237_36': 1732.0, 'init_ShelterA_1_293': 1734.0, 'newveh_ShelterA_2_235_35': 1739.0, 'newveh_ShelterA_2_290_69': 1745.0, 'newveh_ShelterA_2_229_34': 1752.0, 'newveh_ShelterA_2_240_39': 1761.0, 'newveh_ShelterA_2_239_38': 1782.0, 'init_ShelterA_1_271': 1785.0, 'init_ShelterA_1_272': 1787.0, 'init_ShelterA_1_274': 1789.0, 'init_ShelterA_1_276': 1791.0, 'init_ShelterA_1_277': 1793.0, 'init_ShelterA_1_278': 1795.0, 'init_ShelterA_1_279': 1797.0, 'init_ShelterA_1_280': 1800.0, 'init_ShelterA_1_282': 1802.0, 'init_ShelterA_1_286': 1805.0, 'newveh_ShelterA_2_313_79': 1812.0, 'init_ShelterA_1_318': 1825.0, 'newveh_ShelterA_2_252_40': 1826.0, 'newveh_ShelterA_2_253_41': 1832.0, 'newveh_ShelterA_2_254_42': 1840.0, 'newveh_ShelterA_2_258_44': 1847.0, 'newveh_ShelterA_2_256_43': 1867.0, 'init_ShelterA_1_295': 1870.0, 'init_ShelterA_1_296': 1872.0, 'init_ShelterA_1_297': 1874.0, 'init_ShelterA_1_298': 1876.0, 'init_ShelterA_1_299': 1878.0, 'init_ShelterA_1_300': 1880.0, 'init_ShelterA_1_302': 1882.0, 'init_ShelterA_1_308': 1884.0, 'init_ShelterA_1_310': 1887.0, 'init_ShelterA_1_315': 1889.0, 'init_ShelterA_2_337': 1898.0, 'newveh_ShelterA_2_312_78': 1899.0, 'newveh_ShelterA_2_311_77': 1904.0, 'newveh_ShelterA_2_309_76': 1912.0, 'newveh_ShelterA_2_316_81': 1920.0, 'newveh_ShelterA_1_287_48': 1921.0, 'newveh_ShelterA_1_292_53': 1926.0, 'newveh_ShelterA_2_304_80': 1928.0, 'newveh_ShelterA_1_294_54': 1931.0, 'newveh_ShelterA_2_331_95': 1937.0, 'newveh_ShelterA_2_328_94': 1946.0, 'init_ShelterA_1_351': 1949.0, 'newveh_ShelterA_2_268_45': 1955.0, 'newveh_ShelterA_2_270_47': 1965.0, 'init_ShelterA_2_354': 1983.0, 'newveh_ShelterA_2_269_46': 1987.0, 'init_ShelterA_1_317': 1989.0, 'init_ShelterA_1_319': 1991.0, 'init_ShelterA_1_320': 1993.0, 'init_ShelterA_1_321': 1995.0, 'init_ShelterA_1_324': 1997.0, 'init_ShelterA_1_355': 1998.0, 'init_ShelterA_1_326': 1999.0, 'init_ShelterA_1_327': 2001.0, 'init_ShelterA_1_329': 2004.0, 'init_ShelterA_1_332': 2006.0, 'init_ShelterA_1_333': 2009.0, 'init_ShelterA_1_358': 2010.0, 'init_ShelterA_1_335': 2012.0, 'init_ShelterA_1_336': 2015.0, 'init_ShelterA_1_359': 2015.0, 'init_ShelterA_2_365': 2017.0, 'init_ShelterA_2_374': 2019.0, 'newveh_ShelterA_2_334_96': 2037.0, 'init_ShelterA_1_338': 2040.0, 'init_ShelterA_1_339': 2042.0, 'init_ShelterA_1_340': 2044.0, 'init_ShelterA_1_341': 2046.0, 'newveh_ShelterA_2_291_49': 2052.0, 'newveh_ShelterA_2_288_52': 2057.0, 'newveh_ShelterA_2_285_51': 2066.0, 'newveh_ShelterA_2_283_50': 2084.0, 'init_ShelterA_1_348': 2086.0, 'init_ShelterA_1_349': 2088.0, 'init_ShelterA_1_350': 2090.0, 'init_ShelterA_1_352': 2093.0, 'init_ShelterA_1_376': 2095.0, 'init_ShelterA_1_353': 2108.0, 'init_ShelterA_1_356': 2110.0, 'init_ShelterA_1_357': 2112.0, 'newveh_ShelterA_1_370_85': 2117.0, 'newveh_ShelterA_2_301_59': 2131.0, 'newveh_ShelterA_2_307_58': 2139.0, 'init_ShelterA_1_373': 2141.0, 'newveh_ShelterA_2_314_63': 2149.0, 'newveh_ShelterA_2_306_62': 2157.0, 'newveh_ShelterA_2_305_61': 2161.0, 'newveh_ShelterA_2_303_60': 2166.0, 'init_ShelterA_1_375': 2173.0, 'init_ShelterA_1_377': 2175.0, 'init_ShelterA_1_378': 2177.0, 'init_ShelterA_1_379': 2184.0, 'init_ShelterA_1_380': 2187.0, 'init_ShelterA_1_381': 2189.0, 'init_ShelterA_1_382': 2191.0, 'newveh_ShelterA_1_364_84': 2191.0, 'init_ShelterA_1_383': 2193.0, 'newveh_ShelterA_1_384_98': 2210.0, 'newveh_ShelterA_2_322_65': 2213.0, 'newveh_ShelterA_2_342_70': 2218.0, 'newveh_ShelterA_2_343_72': 2232.0, 'newveh_ShelterA_2_330_68': 2239.0, 'newveh_ShelterA_2_325_67': 2248.0, 'newveh_ShelterA_2_323_66': 2252.0, 'newveh_ShelterA_2_360_86': 2257.0, 'newveh_ShelterA_1_386_99': 2264.0, 'newveh_ShelterA_1_398_103': 2274.0, 'newveh_ShelterA_2_344_71': 2295.0, 'newveh_ShelterA_2_345_73': 2302.0, 'newveh_ShelterA_2_366_83': 2308.0, 'newveh_ShelterA_2_346_74': 2314.0, 'newveh_ShelterA_2_347_75': 2321.0, 'newveh_ShelterA_2_363_82': 2328.0, 'newveh_ShelterA_2_369_91': 2335.0, 'newveh_ShelterA_2_368_90': 2343.0, 'newveh_ShelterA_2_367_89': 2352.0, 'newveh_ShelterA_2_362_88': 2361.0, 'newveh_ShelterA_2_361_87': 2370.0, 'newveh_ShelterA_2_390_97': 2379.0, 'newveh_ShelterA_2_371_92': 2388.0, 'newveh_ShelterA_2_372_93': 2398.0, 'newveh_ShelterA_2_397_101': 2408.0, 'newveh_ShelterA_2_385_100': 2417.0, 'newveh_ShelterA_2_387_104': 2427.0, 'newveh_ShelterA_2_399_102': 2437.0, 'newveh_ShelterA_2_396_112': 2446.0, 'newveh_ShelterA_2_395_111': 2456.0, 'newveh_ShelterA_2_394_110': 2466.0, 'newveh_ShelterA_2_393_109': 2476.0, 'newveh_ShelterA_2_392_108': 2485.0, 'newveh_ShelterA_2_391_107': 2492.0, 'newveh_ShelterA_2_389_106': 2496.0, 'newveh_ShelterA_2_388_105': 2500.0}
vehicle_abandant_time_by_pedestrianID_dict:{}
walking_distance_by_pedestrianID_dict:{}
route_change_time_by_vehID_dict:{'init_ShelterA_2_37': 340.0, 'init_ShelterA_2_46': 360.0, 'init_ShelterA_2_47': 360.0, 'init_ShelterA_1_43': 370.0, 'init_ShelterA_1_44': 370.0, 'init_ShelterA_1_48': 370.0, 'init_ShelterA_1_49': 370.0, 'init_ShelterA_1_50': 370.0, 'init_ShelterA_1_51': 370.0, 'init_ShelterA_1_52': 370.0, 'init_ShelterA_2_36': 380.0, 'init_ShelterA_1_53': 400.0, 'init_ShelterA_1_54': 400.0, 'init_ShelterA_1_55': 410.0, 'init_ShelterA_2_61': 410.0, 'init_ShelterA_1_56': 420.0, 'init_ShelterA_1_57': 420.0, 'init_ShelterA_1_58': 420.0, 'init_ShelterA_1_59': 420.0, 'init_ShelterA_1_60': 420.0, 'init_ShelterA_1_62': 420.0, 'init_ShelterA_1_63': 420.0, 'init_ShelterA_1_64': 430.0, 'init_ShelterA_1_66': 430.0, 'init_ShelterA_1_67': 430.0, 'init_ShelterA_2_68': 430.0, 'init_ShelterA_1_65': 440.0, 'init_ShelterA_1_69': 460.0, 'init_ShelterA_1_70': 460.0, 'init_ShelterA_1_71': 490.0, 'init_ShelterA_1_72': 500.0, 'init_ShelterA_1_73': 500.0, 'init_ShelterA_1_74': 510.0, 'init_ShelterA_1_76': 510.0, 'init_ShelterA_1_79': 510.0, 'init_ShelterA_1_75': 520.0, 'init_ShelterA_1_85': 520.0, 'init_ShelterA_2_77': 520.0, 'init_ShelterA_2_83': 520.0, 'init_ShelterA_2_87': 520.0, 'init_ShelterA_2_88': 520.0, 'init_ShelterA_1_78': 550.0, 'init_ShelterA_1_80': 550.0, 'init_ShelterA_1_81': 550.0, 'init_ShelterA_1_82': 550.0, 'init_ShelterA_1_86': 550.0, 'init_ShelterA_2_100': 570.0, 'init_ShelterA_2_102': 570.0, 'init_ShelterA_1_89': 580.0, 'init_ShelterA_1_90': 580.0, 'init_ShelterA_1_91': 580.0, 'init_ShelterA_1_92': 590.0, 'init_ShelterA_1_93': 590.0, 'init_ShelterA_1_94': 590.0, 'init_ShelterA_1_103': 600.0, 'init_ShelterA_1_95': 600.0, 'init_ShelterA_1_96': 600.0, 'init_ShelterA_1_97': 600.0, 'init_ShelterA_1_98': 600.0, 'init_ShelterA_1_99': 600.0, 'init_ShelterA_2_101': 600.0, 'init_ShelterA_1_105': 610.0, 'init_ShelterA_1_106': 610.0, 'init_ShelterA_1_104': 640.0, 'init_ShelterA_1_107': 660.0, 'init_ShelterA_1_108': 660.0, 'init_ShelterA_1_109': 670.0, 'init_ShelterA_1_110': 670.0, 'init_ShelterA_1_111': 670.0, 'init_ShelterA_1_112': 670.0, 'init_ShelterA_1_115': 680.0, 'init_ShelterA_1_116': 680.0, 'init_ShelterA_1_113': 690.0, 'init_ShelterA_1_114': 690.0, 'init_ShelterA_1_117': 690.0, 'init_ShelterA_1_118': 690.0, 'init_ShelterA_1_119': 690.0, 'init_ShelterA_1_120': 690.0, 'init_ShelterA_1_121': 690.0, 'init_ShelterA_1_122': 690.0, 'init_ShelterA_1_123': 690.0, 'init_ShelterA_1_124': 700.0, 'init_ShelterA_1_125': 750.0, 'init_ShelterA_1_127': 750.0, 'init_ShelterA_2_126': 750.0, 'init_ShelterA_1_128': 760.0, 'init_ShelterA_1_130': 760.0, 'init_ShelterA_1_131': 760.0, 'init_ShelterA_1_129': 770.0, 'init_ShelterA_1_132': 770.0, 'init_ShelterA_1_133': 770.0, 'init_ShelterA_1_135': 770.0, 'init_ShelterA_1_137': 770.0, 'init_ShelterA_1_138': 770.0, 'init_ShelterA_1_140': 770.0, 'init_ShelterA_1_136': 780.0, 'init_ShelterA_1_141': 780.0, 'init_ShelterA_1_142': 780.0, 'init_ShelterA_1_187': 810.0, 'init_ShelterA_1_188': 810.0, 'init_ShelterA_1_189': 810.0, 'init_ShelterA_1_190': 810.0, 'init_ShelterA_1_191': 810.0, 'init_ShelterA_1_192': 810.0, 'init_ShelterA_1_193': 810.0, 'init_ShelterA_1_194': 810.0, 'init_ShelterA_1_195': 810.0, 'init_ShelterA_1_196': 810.0, 'init_ShelterA_1_197': 810.0, 'init_ShelterA_1_198': 810.0, 'init_ShelterA_1_199': 810.0, 'init_ShelterA_1_200': 810.0, 'init_ShelterA_1_201': 810.0, 'init_ShelterA_1_202': 810.0, 'init_ShelterA_1_203': 810.0, 'init_ShelterA_1_204': 810.0, 'init_ShelterA_1_206': 810.0, 'init_ShelterA_1_207': 810.0, 'init_ShelterA_1_208': 810.0, 'init_ShelterA_1_209': 810.0, 'init_ShelterA_1_210': 810.0, 'init_ShelterA_1_211': 810.0, 'init_ShelterA_2_185': 810.0, 'init_ShelterA_2_186': 810.0, 'init_ShelterA_2_205': 810.0, 'init_ShelterA_1_144': 830.0, 'init_ShelterA_1_146': 830.0, 'init_ShelterA_2_145': 830.0, 'init_ShelterA_1_143': 840.0, 'init_ShelterA_1_147': 840.0, 'init_ShelterA_1_148': 840.0, 'init_ShelterA_1_149': 840.0, 'init_ShelterA_1_150': 840.0, 'init_ShelterA_1_151': 860.0, 'init_ShelterA_1_152': 860.0, 'init_ShelterA_1_153': 870.0, 'init_ShelterA_1_154': 870.0, 'init_ShelterA_1_155': 870.0, 'init_ShelterA_1_156': 870.0, 'init_ShelterA_1_158': 870.0, 'init_ShelterA_1_159': 870.0, 'init_ShelterA_1_160': 870.0, 'init_ShelterA_2_157': 870.0, 'init_ShelterA_1_162': 920.0, 'init_ShelterA_1_161': 930.0, 'init_ShelterA_1_163': 930.0, 'init_ShelterA_1_164': 930.0, 'init_ShelterA_1_167': 930.0, 'init_ShelterA_1_168': 930.0, 'init_ShelterA_2_165': 930.0, 'init_ShelterA_2_169': 930.0, 'init_ShelterA_1_170': 940.0, 'init_ShelterA_1_166': 950.0, 'init_ShelterA_1_173': 950.0, 'init_ShelterA_1_174': 950.0, 'init_ShelterA_1_175': 950.0, 'init_ShelterA_2_222': 950.0, 'init_ShelterA_1_172': 960.0, 'init_ShelterA_1_177': 960.0, 'init_ShelterA_1_178': 960.0, 'init_ShelterA_1_223': 960.0, 'init_ShelterA_1_224': 960.0, 'init_ShelterA_2_184': 960.0, 'init_ShelterA_1_176': 970.0, 'init_ShelterA_1_225': 970.0, 'init_ShelterA_1_228': 980.0, 'init_ShelterA_2_236': 980.0, 'init_ShelterA_1_227': 990.0, 'init_ShelterA_1_229': 990.0, 'init_ShelterA_1_235': 990.0, 'init_ShelterA_1_237': 990.0, 'init_ShelterA_1_238': 990.0, 'init_ShelterA_1_239': 990.0, 'init_ShelterA_1_240': 990.0, 'init_ShelterA_2_183': 1010.0, 'init_ShelterA_1_179': 1020.0, 'init_ShelterA_1_180': 1020.0, 'init_ShelterA_1_181': 1020.0, 'init_ShelterA_1_182': 1020.0, 'init_ShelterA_1_213': 1020.0, 'init_ShelterA_1_214': 1020.0, 'init_ShelterA_1_215': 1020.0, 'init_ShelterA_1_216': 1020.0, 'init_ShelterA_1_212': 1030.0, 'init_ShelterA_1_217': 1030.0, 'init_ShelterA_1_252': 1070.0, 'init_ShelterA_1_253': 1070.0, 'init_ShelterA_1_254': 1070.0, 'init_ShelterA_1_256': 1070.0, 'init_ShelterA_1_258': 1070.0, 'init_ShelterA_1_268': 1140.0, 'init_ShelterA_1_269': 1140.0, 'init_ShelterA_1_270': 1140.0, 'init_ShelterA_1_219': 1200.0, 'init_ShelterA_1_220': 1200.0, 'init_ShelterA_1_242': 1220.0, 'init_ShelterA_2_287': 1220.0, 'init_ShelterA_1_291': 1230.0, 'init_ShelterA_1_283': 1240.0, 'init_ShelterA_1_285': 1240.0, 'init_ShelterA_1_288': 1240.0, 'init_ShelterA_2_292': 1240.0, 'init_ShelterA_2_294': 1240.0, 'init_ShelterA_1_247': 1250.0, 'init_ShelterA_1_249': 1250.0, 'init_ShelterA_1_243': 1260.0, 'init_ShelterA_1_245': 1260.0, 'init_ShelterA_1_246': 1260.0, 'init_ShelterA_1_248': 1260.0, 'init_ShelterA_1_255': 1260.0, 'init_ShelterA_1_218': 1270.0, 'init_ShelterA_1_251': 1270.0, 'init_ShelterA_1_260': 1270.0, 'init_ShelterA_1_262': 1270.0, 'init_ShelterA_1_231': 1290.0, 'init_ShelterA_1_233': 1290.0, 'init_ShelterA_1_241': 1290.0, 'init_ShelterA_1_226': 1300.0, 'init_ShelterA_1_230': 1300.0, 'init_ShelterA_1_232': 1300.0, 'init_ShelterA_1_257': 1300.0, 'init_ShelterA_1_259': 1300.0, 'init_ShelterA_1_261': 1300.0, 'init_ShelterA_1_267': 1300.0, 'init_ShelterA_1_221': 1310.0, 'init_ShelterA_1_244': 1310.0, 'init_ShelterA_1_250': 1310.0, 'init_ShelterA_1_272': 1310.0, 'init_ShelterA_1_307': 1310.0, 'init_ShelterA_1_301': 1320.0, 'init_ShelterA_1_303': 1320.0, 'init_ShelterA_1_305': 1320.0, 'init_ShelterA_1_306': 1320.0, 'init_ShelterA_1_314': 1320.0, 'init_ShelterA_1_264': 1330.0, 'init_ShelterA_1_266': 1340.0, 'init_ShelterA_1_273': 1360.0, 'init_ShelterA_1_280': 1390.0, 'init_ShelterA_1_282': 1390.0, 'init_ShelterA_1_286': 1390.0, 'init_ShelterA_1_322': 1410.0, 'init_ShelterA_1_323': 1410.0, 'init_ShelterA_1_325': 1410.0, 'init_ShelterA_1_330': 1410.0, 'init_ShelterA_2_275': 1410.0, 'init_ShelterA_1_271': 1420.0, 'init_ShelterA_1_274': 1420.0, 'init_ShelterA_1_276': 1420.0, 'init_ShelterA_1_278': 1420.0, 'init_ShelterA_1_277': 1430.0, 'init_ShelterA_1_279': 1430.0, 'init_ShelterA_1_290': 1440.0, 'init_ShelterA_1_342': 1480.0, 'init_ShelterA_1_344': 1480.0, 'init_ShelterA_1_343': 1490.0, 'init_ShelterA_1_345': 1490.0, 'init_ShelterA_1_346': 1490.0, 'init_ShelterA_1_347': 1490.0, 'init_ShelterA_1_299': 1500.0, 'init_ShelterA_1_300': 1500.0, 'init_ShelterA_1_302': 1500.0, 'init_ShelterA_1_295': 1510.0, 'init_ShelterA_1_296': 1510.0, 'init_ShelterA_1_297': 1510.0, 'init_ShelterA_1_309': 1520.0, 'init_ShelterA_1_311': 1520.0, 'init_ShelterA_1_312': 1520.0, 'init_ShelterA_1_313': 1520.0, 'init_ShelterA_1_304': 1530.0, 'init_ShelterA_1_316': 1530.0, 'init_ShelterA_2_365': 1550.0, 'init_ShelterA_1_319': 1560.0, 'init_ShelterA_1_320': 1560.0, 'init_ShelterA_1_321': 1560.0, 'init_ShelterA_1_324': 1560.0, 'init_ShelterA_1_326': 1560.0, 'init_ShelterA_1_363': 1560.0, 'init_ShelterA_1_366': 1560.0, 'init_ShelterA_2_364': 1560.0, 'init_ShelterA_2_370': 1560.0, 'init_ShelterA_1_308': 1570.0, 'init_ShelterA_1_332': 1570.0, 'init_ShelterA_1_333': 1570.0, 'init_ShelterA_1_335': 1570.0, 'init_ShelterA_1_298': 1580.0, 'init_ShelterA_1_315': 1580.0, 'init_ShelterA_1_360': 1580.0, 'init_ShelterA_1_361': 1580.0, 'init_ShelterA_1_362': 1580.0, 'init_ShelterA_1_367': 1580.0, 'init_ShelterA_1_368': 1580.0, 'init_ShelterA_1_369': 1580.0, 'init_ShelterA_1_371': 1580.0, 'init_ShelterA_1_372': 1580.0, 'init_ShelterA_1_317': 1610.0, 'init_ShelterA_1_328': 1610.0, 'init_ShelterA_1_331': 1610.0, 'init_ShelterA_1_334': 1620.0, 'init_ShelterA_1_310': 1640.0, 'init_ShelterA_1_340': 1640.0, 'init_ShelterA_1_390': 1640.0, 'init_ShelterA_2_337': 1640.0, 'init_ShelterA_2_384': 1640.0, 'init_ShelterA_1_338': 1650.0, 'init_ShelterA_1_339': 1650.0, 'init_ShelterA_1_341': 1650.0, 'init_ShelterA_1_348': 1650.0, 'init_ShelterA_1_349': 1650.0, 'init_ShelterA_1_350': 1650.0, 'init_ShelterA_2_386': 1650.0, 'init_ShelterA_1_385': 1660.0, 'init_ShelterA_1_397': 1660.0, 'init_ShelterA_1_399': 1660.0, 'init_ShelterA_2_398': 1660.0, 'init_ShelterA_1_387': 1670.0, 'init_ShelterA_1_388': 1670.0, 'init_ShelterA_1_389': 1670.0, 'init_ShelterA_1_391': 1670.0, 'init_ShelterA_1_392': 1670.0, 'init_ShelterA_1_393': 1670.0, 'init_ShelterA_1_394': 1670.0, 'init_ShelterA_1_395': 1670.0, 'init_ShelterA_1_396': 1670.0, 'init_ShelterA_1_329': 1680.0, 'init_ShelterA_1_336': 1690.0, 'init_ShelterA_1_327': 1700.0, 'init_ShelterA_1_352': 1760.0, 'init_ShelterA_1_353': 1770.0, 'init_ShelterA_1_356': 1770.0, 'init_ShelterA_2_354': 1770.0, 'init_ShelterA_2_374': 1780.0, 'init_ShelterA_1_378': 1870.0, 'init_ShelterA_1_380': 1870.0, 'init_ShelterA_1_381': 1870.0, 'init_ShelterA_1_382': 1870.0, 'init_ShelterA_1_383': 1870.0, 'init_ShelterA_1_375': 1880.0, 'init_ShelterA_1_377': 1880.0, 'init_ShelterA_1_379': 1880.0, 'init_ShelterA_1_373': 1900.0, 'init_ShelterA_1_357': 1910.0}
pedestrian_count:0
route_changed_vehicle_count:341
route_change_event_count:341
rate_vehicle_abandonment:0.00%
wrong_way_driving_count:0
vehicle_abandonment_count:0
normalcy_bias_route_change_count:184
majority_bias_route_change_count:157
lane_changed_vehicle_count:0
info_obtained_lanechange_count:0
elapsed_time_lanechange_count:0
majority_bias_lanechange_count:0

=== Job Result ===
end=2026-07-13T03:26:59+0900
elapsed_seconds=359
exit_code=0
status=SUCCESS
