=== Job Info ===
job_name=va_s8_e1.0_v1.0_r19
host=schubert
pid=125269
scenario=8
early_rate=1.0
v2v_rate=1.0
run_id=19
config=/home/katagi/vehicle-assistant-system/scenarios/JIP/configs/config_scenario_8.toml
output_dir=/home/katagi/vehicle-assistant-system/schubert_logs/va_s8_e1.0_v1.0_r19
start=2026-07-13T02:19:19+0900
python_version=Python 3.12.3
sumo_version=Eclipse SUMO sumo Version v1_23_1+0435-630512a

=== Command ===
cd /home/katagi/vehicle-assistant-system/schubert_logs/va_s8_e1.0_v1.0_r19
PYTHONPATH=/home/katagi/vehicle-assistant-system:/home/katagi/tmp/sumo/tools:/home/katagi/local/sumo/tools:/home/katagi/tmp/sumo/tools:/home/katagi/local/sumo/tools:/home/katagi/tmp/sumo/tools:/home/katagi/local/sumo/tools: python3 -W ignore::UserWarning -m scenarios.JIP.1-1-4.simulation.runner_simulator --nogui /home/katagi/vehicle-assistant-system/scenarios/JIP/configs/config_scenario_8.toml 1.0 1.0
simulation_pid=125289
Step #0.00 (0ms ?*RT. ?UPS, TraCI: 338ms, vehicles TOT 1 ACT 1 BUF 0)                     Step #100.00 (0ms ?*RT. ?UPS, TraCI: 18ms, vehicles TOT 26 ACT 26 BUF 0)                  Step #200.00 (1ms ~= 1000.00*RT, ~51000.00UPS, TraCI: 39ms, vehicles TOT 51 ACT 51 BUF 0) Step #300.00 (1ms ~= 1000.00*RT, ~77000.00UPS, TraCI: 53ms, vehicles TOT 77 ACT 77 BUF 0) Step #400.00 (0ms ?*RT. ?UPS, TraCI: 703ms, vehicles TOT 104 ACT 104 BUF 0)               Step #500.00 (0ms ?*RT. ?UPS, TraCI: 1159ms, vehicles TOT 131 ACT 131 BUF 0)              Step #600.00 (1ms ~= 1000.00*RT, ~158000.00UPS, TraCI: 555ms, vehicles TOT 158 ACT 158 BUFStep #700.00 (1ms ~= 1000.00*RT, ~180000.00UPS, TraCI: 1715ms, vehicles TOT 195 ACT 180 BUStep #800.00 (1ms ~= 1000.00*RT, ~197000.00UPS, TraCI: 1303ms, vehicles TOT 228 ACT 197 BUStep #900.00 (0ms ?*RT. ?UPS, TraCI: 764ms, vehicles TOT 251 ACT 206 BUF 38)              Step #1000.00 (1ms ~= 1000.00*RT, ~239000.00UPS, TraCI: 1595ms, vehicles TOT 284 ACT 239 BStep #1100.00 (1ms ~= 1000.00*RT, ~259000.00UPS, TraCI: 1493ms, vehicles TOT 321 ACT 259 BStep #1200.00 (0ms ?*RT. ?UPS, TraCI: 1412ms, vehicles TOT 354 ACT 277 BUF 59)            Step #1300.00 (1ms ~= 1000.00*RT, ~297000.00UPS, TraCI: 2522ms, vehicles TOT 380 ACT 297 BStep #1400.00 (1ms ~= 1000.00*RT, ~319000.00UPS, TraCI: 2024ms, vehicles TOT 412 ACT 319 BStep #1500.00 (0ms ?*RT. ?UPS, TraCI: 1882ms, vehicles TOT 435 ACT 332 BUF 68)            Step #1600.00 (1ms ~= 1000.00*RT, ~357000.00UPS, TraCI: 984ms, vehicles TOT 463 ACT 357 BUStep #1700.00 (1ms ~= 1000.00*RT, ~379000.00UPS, TraCI: 1082ms, vehicles TOT 498 ACT 379 BStep #1800.00 (1ms ~= 1000.00*RT, ~400000.00UPS, TraCI: 1436ms, vehicles TOT 522 ACT 400 BStep #1900.00 (1ms ~= 1000.00*RT, ~400000.00UPS, TraCI: 1456ms, vehicles TOT 522 ACT 400 BStep #2000.00 (0ms ?*RT. ?UPS, TraCI: 1262ms, vehicles TOT 522 ACT 400 BUF 0)             Step #2100.00 (0ms ?*RT. ?UPS, TraCI: 865ms, vehicles TOT 522 ACT 400 BUF 0)              Step #2200.00 (0ms ?*RT. ?UPS, TraCI: 91ms, vehicles TOT 522 ACT 400 BUF 0)               Step #2300.00 (0ms ?*RT. ?UPS, TraCI: 91ms, vehicles TOT 522 ACT 400 BUF 0)               Step #2400.00 (0ms ?*RT. ?UPS, TraCI: 77ms, vehicles TOT 522 ACT 400 BUF 0)               Step #2500.00 (0ms ?*RT. ?UPS, TraCI: 78ms, vehicles TOT 522 ACT 400 BUF 0)               Step #2600.00 (0ms ?*RT. ?UPS, TraCI: 78ms, vehicles TOT 522 ACT 400 BUF 0)               Step #2700.00 (0ms ?*RT. ?UPS, TraCI: 79ms, vehicles TOT 522 ACT 400 BUF 0)               Step #2800.00 (0ms ?*RT. ?UPS, TraCI: 78ms, vehicles TOT 522 ACT 400 BUF 0)               Step #2900.00 (0ms ?*RT. ?UPS, TraCI: 79ms, vehicles TOT 522 ACT 400 BUF 0)               Step #3000.00 (0ms ?*RT. ?UPS, TraCI: 79ms, vehicles TOT 522 ACT 400 BUF 0)               
 Retrying in 1 seconds
出現数: {'A2': 39, 'A1': 361}
割合:
  Total: 400
  A1: 361 (90.25%)
  A2: 39 (9.75%)
  B1: 0 (0.00%)
  B2: 0 (0.00%)
mean elapsed_time: 533.64
OK all vehs arrived 
平均渋滞継続時間: 466.53秒
OK all vehicle abandonment were detected
279
121
===== Simlation Result Summary =====
avg_congestion_duration: 466.53 
arrival_time_by_vehID_dict:{'init_ShelterA_1_1': 208.0, 'init_ShelterA_1_2': 213.0, 'init_ShelterA_1_3': 222.0, 'init_ShelterA_1_4': 229.0, 'init_ShelterA_1_5': 235.0, 'init_ShelterA_1_6': 242.0, 'init_ShelterA_1_7': 246.0, 'init_ShelterA_1_8': 251.0, 'init_ShelterA_1_9': 286.0, 'init_ShelterA_1_10': 293.0, 'init_ShelterA_1_11': 299.0, 'init_ShelterA_2_0': 305.0, 'init_ShelterA_1_12': 306.0, 'init_ShelterA_1_13': 312.0, 'init_ShelterA_1_14': 319.0, 'init_ShelterA_1_15': 327.0, 'init_ShelterA_1_16': 335.0, 'init_ShelterA_1_17': 342.0, 'init_ShelterA_1_18': 346.0, 'init_ShelterA_1_19': 350.0, 'init_ShelterA_1_22': 374.0, 'init_ShelterA_1_23': 378.0, 'init_ShelterA_1_24': 389.0, 'init_ShelterA_1_25': 396.0, 'init_ShelterA_1_26': 401.0, 'init_ShelterA_1_27': 407.0, 'init_ShelterA_2_20': 409.0, 'init_ShelterA_1_28': 414.0, 'init_ShelterA_1_29': 421.0, 'init_ShelterA_1_30': 430.0, 'init_ShelterA_1_31': 438.0, 'init_ShelterA_1_32': 448.0, 'init_ShelterA_1_33': 455.0, 'init_ShelterA_1_34': 462.0, 'init_ShelterA_1_35': 467.0, 'init_ShelterA_1_36': 473.0, 'init_ShelterA_1_38': 480.0, 'init_ShelterA_1_39': 488.0, 'init_ShelterA_1_40': 498.0, 'init_ShelterA_1_42': 507.0, 'init_ShelterA_2_44': 509.0, 'init_ShelterA_2_46': 511.0, 'init_ShelterA_1_52': 516.0, 'init_ShelterA_2_21': 519.0, 'init_ShelterA_2_37': 524.0, 'init_ShelterA_1_41': 559.0, 'init_ShelterA_1_59': 564.0, 'init_ShelterA_1_68': 588.0, 'init_ShelterA_1_70': 593.0, 'init_ShelterA_1_43': 595.0, 'init_ShelterA_1_45': 597.0, 'init_ShelterA_1_47': 601.0, 'init_ShelterA_1_48': 603.0, 'init_ShelterA_1_49': 606.0, 'init_ShelterA_1_50': 609.0, 'init_ShelterA_1_51': 612.0, 'init_ShelterA_1_53': 615.0, 'init_ShelterA_1_54': 619.0, 'init_ShelterA_2_78': 649.0, 'init_ShelterA_2_79': 653.0, 'init_ShelterA_1_55': 668.0, 'init_ShelterA_1_56': 670.0, 'init_ShelterA_1_57': 673.0, 'init_ShelterA_1_58': 676.0, 'init_ShelterA_1_60': 679.0, 'init_ShelterA_1_61': 682.0, 'init_ShelterA_1_62': 685.0, 'init_ShelterA_1_63': 688.0, 'init_ShelterA_1_64': 691.0, 'init_ShelterA_1_65': 694.0, 'init_ShelterA_1_66': 697.0, 'init_ShelterA_1_67': 700.0, 'init_ShelterA_1_69': 702.0, 'init_ShelterA_1_71': 736.0, 'init_ShelterA_1_72': 741.0, 'init_ShelterA_1_73': 743.0, 'init_ShelterA_1_74': 747.0, 'init_ShelterA_1_75': 749.0, 'init_ShelterA_1_93': 752.0, 'init_ShelterA_1_76': 756.0, 'init_ShelterA_1_94': 757.0, 'init_ShelterA_2_97': 759.0, 'init_ShelterA_1_77': 767.0, 'init_ShelterA_1_80': 769.0, 'init_ShelterA_1_81': 771.0, 'init_ShelterA_1_82': 774.0, 'init_ShelterA_1_83': 777.0, 'init_ShelterA_1_84': 780.0, 'init_ShelterA_1_85': 785.0, 'init_ShelterA_1_86': 787.0, 'init_ShelterA_2_104': 812.0, 'init_ShelterA_2_107': 814.0, 'init_ShelterA_1_87': 841.0, 'init_ShelterA_1_88': 843.0, 'init_ShelterA_1_118': 850.0, 'init_ShelterA_1_89': 854.0, 'init_ShelterA_1_90': 856.0, 'init_ShelterA_1_91': 858.0, 'init_ShelterA_1_92': 860.0, 'init_ShelterA_1_95': 863.0, 'init_ShelterA_1_96': 866.0, 'init_ShelterA_1_98': 869.0, 'init_ShelterA_1_99': 872.0, 'init_ShelterA_1_100': 875.0, 'init_ShelterA_1_101': 878.0, 'init_ShelterA_1_102': 881.0, 'init_ShelterA_1_103': 884.0, 'init_ShelterA_1_105': 904.0, 'init_ShelterA_1_106': 912.0, 'init_ShelterA_1_108': 920.0, 'init_ShelterA_1_109': 946.0, 'init_ShelterA_1_134': 947.0, 'init_ShelterA_1_110': 949.0, 'init_ShelterA_1_111': 951.0, 'init_ShelterA_1_112': 953.0, 'init_ShelterA_1_113': 956.0, 'init_ShelterA_1_114': 959.0, 'init_ShelterA_1_115': 962.0, 'init_ShelterA_1_116': 965.0, 'init_ShelterA_1_117': 968.0, 'init_ShelterA_1_119': 971.0, 'init_ShelterA_1_120': 974.0, 'init_ShelterA_1_121': 982.0, 'init_ShelterA_1_122': 986.0, 'init_ShelterA_2_140': 995.0, 'init_ShelterA_1_123': 996.0, 'init_ShelterA_2_141': 997.0, 'init_ShelterA_1_124': 1003.0, 'init_ShelterA_1_125': 1011.0, 'init_ShelterA_1_126': 1012.0, 'init_ShelterA_1_127': 1014.0, 'init_ShelterA_1_128': 1017.0, 'init_ShelterA_2_148': 1025.0, 'init_ShelterA_1_129': 1026.0, 'init_ShelterA_1_130': 1028.0, 'init_ShelterA_1_131': 1030.0, 'init_ShelterA_1_149': 1040.0, 'init_ShelterA_1_159': 1048.0, 'init_ShelterA_1_163': 1052.0, 'init_ShelterA_1_132': 1056.0, 'init_ShelterA_1_165': 1056.0, 'init_ShelterA_1_133': 1058.0, 'init_ShelterA_1_135': 1060.0, 'init_ShelterA_1_136': 1062.0, 'init_ShelterA_1_137': 1065.0, 'init_ShelterA_1_138': 1099.0, 'init_ShelterA_1_139': 1106.0, 'init_ShelterA_1_142': 1108.0, 'init_ShelterA_1_143': 1120.0, 'init_ShelterA_1_144': 1122.0, 'newveh_ShelterA_1_160_11': 1123.0, 'init_ShelterA_1_145': 1124.0, 'init_ShelterA_1_146': 1126.0, 'init_ShelterA_1_147': 1129.0, 'init_ShelterA_1_169': 1131.0, 'init_ShelterA_1_173': 1136.0, 'init_ShelterA_1_176': 1140.0, 'newveh_ShelterA_2_150_0': 1146.0, 'init_ShelterA_1_158': 1148.0, 'init_ShelterA_1_178': 1187.0, 'init_ShelterA_1_183': 1194.0, 'init_ShelterA_1_184': 1199.0, 'newveh_ShelterA_1_171_14': 1205.0, 'init_ShelterA_1_166': 1206.0, 'init_ShelterA_1_167': 1207.0, 'init_ShelterA_1_187': 1211.0, 'newveh_ShelterA_1_181_18': 1216.0, 'init_ShelterA_1_190': 1220.0, 'newveh_ShelterA_2_161_8': 1227.0, 'newveh_ShelterA_2_157_7': 1234.0, 'newveh_ShelterA_2_156_6': 1240.0, 'newveh_ShelterA_2_155_5': 1246.0, 'newveh_ShelterA_2_154_4': 1253.0, 'newveh_ShelterA_2_153_3': 1260.0, 'newveh_ShelterA_2_152_2': 1268.0, 'newveh_ShelterA_2_151_1': 1276.0, 'init_ShelterA_1_199': 1279.0, 'newveh_ShelterA_2_164_10': 1284.0, 'newveh_ShelterA_1_196_27': 1285.0, 'newveh_ShelterA_2_162_9': 1288.0, 'init_ShelterA_1_209': 1293.0, 'newveh_ShelterA_2_168_12': 1293.0, 'init_ShelterA_1_210': 1298.0, 'init_ShelterA_1_211': 1305.0, 'init_ShelterA_1_213': 1310.0, 'newveh_ShelterA_2_172_13': 1310.0, 'newveh_ShelterA_1_200_30': 1314.0, 'newveh_ShelterA_2_177_16': 1317.0, 'newveh_ShelterA_2_175_15': 1326.0, 'newveh_ShelterA_2_182_17': 1330.0, 'init_ShelterA_1_189': 1332.0, 'newveh_ShelterA_2_186_22': 1342.0, 'init_ShelterA_2_219': 1349.0, 'newveh_ShelterA_2_185_21': 1350.0, 'init_ShelterA_1_191': 1352.0, 'newveh_ShelterA_2_170_19': 1358.0, 'newveh_ShelterA_2_174_20': 1362.0, 'newveh_ShelterA_2_212_57': 1367.0, 'newveh_ShelterA_2_188_25': 1381.0, 'newveh_ShelterA_2_179_23': 1387.0, 'init_ShelterA_1_223': 1391.0, 'newveh_ShelterA_2_180_24': 1392.0, 'init_ShelterA_1_227': 1395.0, 'newveh_ShelterA_2_193_26': 1401.0, 'newveh_ShelterA_2_192_28': 1408.0, 'init_ShelterA_1_214': 1410.0, 'newveh_ShelterA_2_194_29': 1418.0, 'newveh_ShelterA_2_203_32': 1425.0, 'newveh_ShelterA_2_202_31': 1433.0, 'newveh_ShelterA_2_204_33': 1437.0, 'init_ShelterA_1_218': 1440.0, 'newveh_ShelterA_2_222_71': 1450.0, 'newveh_ShelterA_2_195_34': 1454.0, 'newveh_ShelterA_1_216_42': 1460.0, 'newveh_ShelterA_2_226_76': 1465.0, 'init_ShelterA_1_220': 1468.0, 'init_ShelterA_1_231': 1469.0, 'init_ShelterA_1_232': 1475.0, 'newveh_ShelterA_2_197_35': 1476.0, 'init_ShelterA_1_234': 1481.0, 'newveh_ShelterA_2_198_36': 1482.0, 'init_ShelterA_1_235': 1487.0, 'newveh_ShelterA_2_208_41': 1488.0, 'init_ShelterA_1_236': 1494.0, 'newveh_ShelterA_2_207_40': 1494.0, 'init_ShelterA_1_237': 1501.0, 'newveh_ShelterA_2_206_39': 1501.0, 'init_ShelterA_1_240': 1509.0, 'newveh_ShelterA_2_205_38': 1510.0, 'init_ShelterA_1_245': 1515.0, 'init_ShelterA_1_250': 1519.0, 'init_ShelterA_1_251': 1524.0, 'newveh_ShelterA_2_201_37': 1530.0, 'init_ShelterA_1_221': 1532.0, 'init_ShelterA_1_224': 1534.0, 'init_ShelterA_1_225': 1537.0, 'init_ShelterA_1_228': 1539.0, 'init_ShelterA_1_229': 1541.0, 'init_ShelterA_1_230': 1543.0, 'init_ShelterA_1_233': 1546.0, 'init_ShelterA_1_259': 1550.0, 'init_ShelterA_1_260': 1556.0, 'init_ShelterA_1_266': 1560.0, 'init_ShelterA_1_278': 1572.0, 'init_ShelterA_1_239': 1576.0, 'init_ShelterA_1_279': 1580.0, 'init_ShelterA_1_281': 1584.0, 'init_ShelterA_1_285': 1589.0, 'newveh_ShelterA_2_217_44': 1602.0, 'newveh_ShelterA_2_215_43': 1611.0, 'init_ShelterA_1_247': 1613.0, 'newveh_ShelterA_2_238_81': 1619.0, 'newveh_ShelterA_2_258_82': 1623.0, 'newveh_ShelterA_2_277_87': 1636.0, 'newveh_ShelterA_2_273_86': 1641.0, 'init_ShelterA_1_253': 1643.0, 'init_ShelterA_1_254': 1645.0, 'init_ShelterA_1_255': 1647.0, 'init_ShelterA_1_290': 1647.0, 'init_ShelterA_1_262': 1649.0, 'init_ShelterA_1_268': 1651.0, 'init_ShelterA_1_269': 1654.0, 'init_ShelterA_1_271': 1657.0, 'init_ShelterA_1_272': 1660.0, 'newveh_ShelterA_1_264_60': 1666.0, 'newveh_ShelterA_1_270_61': 1674.0, 'newveh_ShelterA_2_256_50': 1675.0, 'init_ShelterA_1_282': 1677.0, 'newveh_ShelterA_2_248_49': 1690.0, 'init_ShelterA_2_300': 1703.0, 'init_ShelterA_2_304': 1724.0, 'newveh_ShelterA_2_244_48': 1731.0, 'newveh_ShelterA_2_243_47': 1740.0, 'newveh_ShelterA_2_242_46': 1744.0, 'newveh_ShelterA_1_280_62': 1748.0, 'newveh_ShelterA_1_283_63': 1754.0, 'newveh_ShelterA_1_284_64': 1758.0, 'newveh_ShelterA_2_241_45': 1764.0, 'init_ShelterA_1_294': 1766.0, 'newveh_ShelterA_2_246_51': 1775.0, 'newveh_ShelterA_2_257_54': 1781.0, 'newveh_ShelterA_2_252_53': 1787.0, 'newveh_ShelterA_2_249_52': 1794.0, 'newveh_ShelterA_2_261_55': 1801.0, 'newveh_ShelterA_2_263_56': 1809.0, 'init_ShelterA_1_314': 1810.0, 'newveh_ShelterA_2_265_58': 1819.0, 'newveh_ShelterA_2_267_59': 1825.0, 'init_ShelterA_1_299': 1827.0, 'init_ShelterA_1_316': 1827.0, 'newveh_ShelterA_2_315_104': 1833.0, 'init_ShelterA_1_317': 1835.0, 'init_ShelterA_1_318': 1839.0, 'newveh_ShelterA_2_310_103': 1840.0, 'init_ShelterA_1_301': 1842.0, 'newveh_ShelterA_1_291_75': 1843.0, 'init_ShelterA_1_302': 1844.0, 'init_ShelterA_1_303': 1847.0, 'init_ShelterA_1_305': 1849.0, 'init_ShelterA_1_306': 1860.0, 'init_ShelterA_1_307': 1862.0, 'init_ShelterA_1_308': 1864.0, 'init_ShelterA_1_309': 1866.0, 'newveh_ShelterA_2_274_65': 1884.0, 'newveh_ShelterA_2_288_70': 1891.0, 'newveh_ShelterA_2_287_69': 1896.0, 'newveh_ShelterA_2_286_68': 1902.0, 'newveh_ShelterA_2_331_107': 1907.0, 'newveh_ShelterA_1_296_77': 1914.0, 'newveh_ShelterA_2_328_106': 1914.0, 'init_ShelterA_1_339': 1919.0, 'newveh_ShelterA_2_332_109': 1920.0, 'newveh_ShelterA_2_320_108': 1924.0, 'init_ShelterA_2_356': 1927.0, 'newveh_ShelterA_2_275_66': 1933.0, 'newveh_ShelterA_2_276_67': 1937.0, 'init_ShelterA_1_319': 1939.0, 'newveh_ShelterA_2_289_72': 1947.0, 'newveh_ShelterA_2_293_74': 1954.0, 'newveh_ShelterA_2_292_73': 1975.0, 'init_ShelterA_1_323': 1977.0, 'init_ShelterA_1_327': 1979.0, 'init_ShelterA_1_329': 1981.0, 'init_ShelterA_2_360': 1982.0, 'init_ShelterA_1_330': 1983.0, 'init_ShelterA_1_333': 1985.0, 'init_ShelterA_1_334': 1987.0, 'newveh_ShelterA_2_351_118': 2001.0, 'init_ShelterA_1_363': 2005.0, 'newveh_ShelterA_2_352_119': 2006.0, 'init_ShelterA_1_335': 2010.0, 'init_ShelterA_1_367': 2011.0, 'init_ShelterA_1_336': 2012.0, 'init_ShelterA_1_337': 2014.0, 'init_ShelterA_1_338': 2016.0, 'init_ShelterA_1_343': 2018.0, 'newveh_ShelterA_1_311_85': 2027.0, 'init_ShelterA_1_374': 2036.0, 'newveh_ShelterA_2_295_78': 2037.0, 'newveh_ShelterA_2_297_79': 2042.0, 'newveh_ShelterA_2_298_80': 2057.0, 'init_ShelterA_1_353': 2060.0, 'init_ShelterA_1_354': 2062.0, 'init_ShelterA_1_355': 2064.0, 'init_ShelterA_1_357': 2066.0, 'init_ShelterA_1_358': 2068.0, 'init_ShelterA_1_359': 2070.0, 'init_ShelterA_1_361': 2072.0, 'init_ShelterA_1_362': 2086.0, 'init_ShelterA_1_364': 2088.0, 'init_ShelterA_1_376': 2090.0, 'init_ShelterA_1_366': 2095.0, 'init_ShelterA_1_368': 2096.0, 'init_ShelterA_1_377': 2096.0, 'init_ShelterA_1_378': 2102.0, 'init_ShelterA_1_369': 2105.0, 'init_ShelterA_1_379': 2107.0, 'init_ShelterA_1_384': 2113.0, 'init_ShelterA_1_387': 2120.0, 'init_ShelterA_1_388': 2127.0, 'init_ShelterA_1_389': 2134.0, 'init_ShelterA_1_370': 2139.0, 'init_ShelterA_1_371': 2141.0, 'init_ShelterA_1_392': 2142.0, 'init_ShelterA_1_372': 2143.0, 'init_ShelterA_1_373': 2145.0, 'init_ShelterA_1_393': 2150.0, 'newveh_ShelterA_1_322_89': 2156.0, 'init_ShelterA_1_394': 2161.0, 'newveh_ShelterA_2_312_83': 2163.0, 'init_ShelterA_1_395': 2166.0, 'newveh_ShelterA_2_313_84': 2168.0, 'init_ShelterA_1_375': 2170.0, 'init_ShelterA_1_396': 2173.0, 'newveh_ShelterA_1_349_94': 2182.0, 'init_ShelterA_1_397': 2190.0, 'newveh_ShelterA_2_321_88': 2192.0, 'newveh_ShelterA_1_342_93': 2194.0, 'newveh_ShelterA_1_350_100': 2199.0, 'newveh_ShelterA_1_386_112': 2206.0, 'newveh_ShelterA_2_325_91': 2206.0, 'newveh_ShelterA_1_382_110': 2211.0, 'newveh_ShelterA_2_324_90': 2219.0, 'newveh_ShelterA_2_326_92': 2279.0, 'newveh_ShelterA_2_340_95': 2288.0, 'newveh_ShelterA_2_346_97': 2292.0, 'newveh_ShelterA_2_341_96': 2296.0, 'newveh_ShelterA_2_348_99': 2311.0, 'newveh_ShelterA_2_347_98': 2319.0, 'newveh_ShelterA_2_344_101': 2324.0, 'newveh_ShelterA_2_380_113': 2330.0, 'newveh_ShelterA_2_391_111': 2338.0, 'newveh_ShelterA_2_345_102': 2343.0, 'newveh_ShelterA_2_365_105': 2347.0, 'newveh_ShelterA_2_381_114': 2359.0, 'newveh_ShelterA_2_383_115': 2364.0, 'newveh_ShelterA_2_398_120': 2378.0, 'newveh_ShelterA_2_390_117': 2387.0, 'newveh_ShelterA_2_385_116': 2392.0, 'newveh_ShelterA_2_399_121': 2397.0}
vehicle_abandant_time_by_pedestrianID_dict:{}
walking_distance_by_pedestrianID_dict:{}
route_change_time_by_vehID_dict:{'init_ShelterA_2_46': 360.0, 'init_ShelterA_1_41': 370.0, 'init_ShelterA_1_43': 370.0, 'init_ShelterA_1_45': 370.0, 'init_ShelterA_1_47': 370.0, 'init_ShelterA_1_50': 370.0, 'init_ShelterA_1_51': 370.0, 'init_ShelterA_2_44': 370.0, 'init_ShelterA_1_48': 380.0, 'init_ShelterA_1_49': 380.0, 'init_ShelterA_1_53': 380.0, 'init_ShelterA_1_54': 380.0, 'init_ShelterA_1_55': 420.0, 'init_ShelterA_1_56': 420.0, 'init_ShelterA_1_58': 420.0, 'init_ShelterA_1_57': 430.0, 'init_ShelterA_1_61': 460.0, 'init_ShelterA_1_63': 460.0, 'init_ShelterA_1_64': 460.0, 'init_ShelterA_1_66': 460.0, 'init_ShelterA_1_67': 460.0, 'init_ShelterA_1_69': 460.0, 'init_ShelterA_1_71': 470.0, 'init_ShelterA_1_65': 480.0, 'init_ShelterA_1_60': 490.0, 'init_ShelterA_1_62': 490.0, 'init_ShelterA_1_73': 490.0, 'init_ShelterA_2_79': 490.0, 'init_ShelterA_1_75': 500.0, 'init_ShelterA_2_78': 500.0, 'init_ShelterA_1_72': 510.0, 'init_ShelterA_1_74': 510.0, 'init_ShelterA_1_76': 510.0, 'init_ShelterA_1_77': 510.0, 'init_ShelterA_1_82': 510.0, 'init_ShelterA_1_83': 510.0, 'init_ShelterA_1_84': 510.0, 'init_ShelterA_1_86': 510.0, 'init_ShelterA_1_80': 520.0, 'init_ShelterA_1_81': 520.0, 'init_ShelterA_1_85': 520.0, 'init_ShelterA_1_87': 520.0, 'init_ShelterA_1_88': 520.0, 'init_ShelterA_2_97': 560.0, 'init_ShelterA_1_90': 570.0, 'init_ShelterA_1_96': 570.0, 'init_ShelterA_1_99': 570.0, 'init_ShelterA_1_91': 580.0, 'init_ShelterA_1_100': 590.0, 'init_ShelterA_1_89': 590.0, 'init_ShelterA_1_92': 590.0, 'init_ShelterA_1_95': 590.0, 'init_ShelterA_1_98': 590.0, 'init_ShelterA_1_101': 600.0, 'init_ShelterA_2_104': 600.0, 'init_ShelterA_2_107': 610.0, 'init_ShelterA_1_102': 620.0, 'init_ShelterA_1_106': 620.0, 'init_ShelterA_1_103': 630.0, 'init_ShelterA_1_105': 630.0, 'init_ShelterA_1_150': 640.0, 'init_ShelterA_1_151': 640.0, 'init_ShelterA_1_152': 640.0, 'init_ShelterA_1_153': 640.0, 'init_ShelterA_1_154': 640.0, 'init_ShelterA_1_155': 640.0, 'init_ShelterA_1_156': 640.0, 'init_ShelterA_1_157': 640.0, 'init_ShelterA_1_161': 640.0, 'init_ShelterA_1_162': 640.0, 'init_ShelterA_1_164': 640.0, 'init_ShelterA_2_160': 640.0, 'init_ShelterA_1_168': 650.0, 'init_ShelterA_1_108': 660.0, 'init_ShelterA_1_109': 670.0, 'init_ShelterA_1_110': 670.0, 'init_ShelterA_1_111': 670.0, 'init_ShelterA_1_112': 680.0, 'init_ShelterA_1_113': 680.0, 'init_ShelterA_1_114': 680.0, 'init_ShelterA_1_116': 680.0, 'init_ShelterA_1_117': 680.0, 'init_ShelterA_1_120': 690.0, 'init_ShelterA_1_122': 690.0, 'init_ShelterA_1_121': 700.0, 'init_ShelterA_1_172': 700.0, 'init_ShelterA_2_171': 700.0, 'init_ShelterA_1_119': 710.0, 'init_ShelterA_1_175': 710.0, 'init_ShelterA_1_177': 710.0, 'init_ShelterA_1_182': 710.0, 'init_ShelterA_2_181': 710.0, 'init_ShelterA_1_170': 720.0, 'init_ShelterA_1_174': 720.0, 'init_ShelterA_1_185': 720.0, 'init_ShelterA_1_186': 720.0, 'init_ShelterA_1_115': 730.0, 'init_ShelterA_1_179': 730.0, 'init_ShelterA_1_180': 730.0, 'init_ShelterA_1_188': 730.0, 'init_ShelterA_1_126': 740.0, 'init_ShelterA_1_128': 750.0, 'init_ShelterA_1_129': 750.0, 'init_ShelterA_1_131': 750.0, 'init_ShelterA_1_127': 760.0, 'init_ShelterA_1_130': 760.0, 'init_ShelterA_1_132': 760.0, 'init_ShelterA_1_124': 770.0, 'init_ShelterA_1_125': 770.0, 'init_ShelterA_1_133': 770.0, 'init_ShelterA_1_135': 770.0, 'init_ShelterA_1_189': 770.0, 'init_ShelterA_1_123': 780.0, 'init_ShelterA_1_139': 780.0, 'init_ShelterA_1_142': 780.0, 'init_ShelterA_1_191': 780.0, 'init_ShelterA_1_193': 780.0, 'init_ShelterA_2_140': 780.0, 'init_ShelterA_2_141': 780.0, 'init_ShelterA_1_137': 790.0, 'init_ShelterA_1_138': 790.0, 'init_ShelterA_1_143': 790.0, 'init_ShelterA_2_196': 790.0, 'init_ShelterA_1_136': 800.0, 'init_ShelterA_1_192': 800.0, 'init_ShelterA_1_194': 800.0, 'init_ShelterA_2_200': 800.0, 'init_ShelterA_1_202': 810.0, 'init_ShelterA_1_203': 810.0, 'init_ShelterA_1_204': 810.0, 'init_ShelterA_1_195': 820.0, 'init_ShelterA_1_197': 820.0, 'init_ShelterA_1_198': 820.0, 'init_ShelterA_1_201': 820.0, 'init_ShelterA_1_205': 820.0, 'init_ShelterA_1_206': 820.0, 'init_ShelterA_1_207': 820.0, 'init_ShelterA_1_208': 820.0, 'init_ShelterA_1_144': 830.0, 'init_ShelterA_1_145': 840.0, 'init_ShelterA_1_146': 840.0, 'init_ShelterA_2_148': 840.0, 'init_ShelterA_1_158': 850.0, 'init_ShelterA_1_147': 860.0, 'init_ShelterA_1_167': 860.0, 'init_ShelterA_1_166': 870.0, 'init_ShelterA_2_216': 870.0, 'init_ShelterA_1_215': 890.0, 'init_ShelterA_1_217': 890.0, 'init_ShelterA_1_241': 1050.0, 'init_ShelterA_1_242': 1050.0, 'init_ShelterA_1_243': 1050.0, 'init_ShelterA_1_244': 1050.0, 'init_ShelterA_1_248': 1050.0, 'init_ShelterA_1_256': 1050.0, 'init_ShelterA_1_246': 1070.0, 'init_ShelterA_1_249': 1070.0, 'init_ShelterA_1_252': 1070.0, 'init_ShelterA_1_257': 1070.0, 'init_ShelterA_1_261': 1070.0, 'init_ShelterA_1_263': 1070.0, 'init_ShelterA_1_212': 1080.0, 'init_ShelterA_1_265': 1080.0, 'init_ShelterA_1_267': 1080.0, 'init_ShelterA_2_264': 1080.0, 'init_ShelterA_2_219': 1090.0, 'init_ShelterA_2_270': 1090.0, 'init_ShelterA_1_218': 1100.0, 'init_ShelterA_1_220': 1100.0, 'init_ShelterA_1_214': 1120.0, 'init_ShelterA_1_229': 1130.0, 'init_ShelterA_2_280': 1130.0, 'init_ShelterA_2_283': 1130.0, 'init_ShelterA_2_284': 1130.0, 'init_ShelterA_1_274': 1140.0, 'init_ShelterA_1_275': 1140.0, 'init_ShelterA_1_276': 1140.0, 'init_ShelterA_1_286': 1140.0, 'init_ShelterA_1_287': 1140.0, 'init_ShelterA_1_288': 1140.0, 'init_ShelterA_1_222': 1160.0, 'init_ShelterA_1_289': 1160.0, 'init_ShelterA_1_292': 1160.0, 'init_ShelterA_1_293': 1160.0, 'init_ShelterA_2_291': 1160.0, 'init_ShelterA_1_226': 1170.0, 'init_ShelterA_1_230': 1170.0, 'init_ShelterA_1_233': 1180.0, 'init_ShelterA_1_239': 1200.0, 'init_ShelterA_1_247': 1210.0, 'init_ShelterA_2_296': 1210.0, 'init_ShelterA_1_295': 1230.0, 'init_ShelterA_1_297': 1230.0, 'init_ShelterA_1_298': 1250.0, 'init_ShelterA_1_238': 1260.0, 'init_ShelterA_1_221': 1270.0, 'init_ShelterA_1_224': 1270.0, 'init_ShelterA_1_225': 1270.0, 'init_ShelterA_1_258': 1270.0, 'init_ShelterA_1_228': 1280.0, 'init_ShelterA_1_269': 1300.0, 'init_ShelterA_1_271': 1300.0, 'init_ShelterA_1_282': 1310.0, 'init_ShelterA_1_312': 1320.0, 'init_ShelterA_1_313': 1320.0, 'init_ShelterA_2_311': 1320.0, 'init_ShelterA_1_255': 1330.0, 'init_ShelterA_1_262': 1330.0, 'init_ShelterA_1_253': 1340.0, 'init_ShelterA_1_254': 1340.0, 'init_ShelterA_1_268': 1340.0, 'init_ShelterA_1_272': 1340.0, 'init_ShelterA_1_273': 1350.0, 'init_ShelterA_1_277': 1350.0, 'init_ShelterA_1_321': 1380.0, 'init_ShelterA_2_322': 1380.0, 'init_ShelterA_1_324': 1390.0, 'init_ShelterA_1_325': 1390.0, 'init_ShelterA_1_326': 1390.0, 'init_ShelterA_1_294': 1440.0, 'init_ShelterA_2_300': 1440.0, 'init_ShelterA_2_342': 1480.0, 'init_ShelterA_2_349': 1480.0, 'init_ShelterA_1_340': 1490.0, 'init_ShelterA_1_341': 1490.0, 'init_ShelterA_1_346': 1490.0, 'init_ShelterA_1_347': 1490.0, 'init_ShelterA_1_348': 1490.0, 'init_ShelterA_2_304': 1490.0, 'init_ShelterA_2_350': 1490.0, 'init_ShelterA_1_303': 1500.0, 'init_ShelterA_1_344': 1500.0, 'init_ShelterA_1_345': 1500.0, 'init_ShelterA_1_306': 1510.0, 'init_ShelterA_1_301': 1520.0, 'init_ShelterA_1_302': 1520.0, 'init_ShelterA_1_307': 1520.0, 'init_ShelterA_1_308': 1520.0, 'init_ShelterA_1_309': 1520.0, 'init_ShelterA_1_299': 1530.0, 'init_ShelterA_1_305': 1530.0, 'init_ShelterA_1_310': 1530.0, 'init_ShelterA_1_315': 1530.0, 'init_ShelterA_1_330': 1570.0, 'init_ShelterA_1_329': 1580.0, 'init_ShelterA_1_365': 1580.0, 'init_ShelterA_1_319': 1610.0, 'init_ShelterA_1_328': 1610.0, 'init_ShelterA_1_331': 1610.0, 'init_ShelterA_1_320': 1620.0, 'init_ShelterA_1_332': 1620.0, 'init_ShelterA_1_327': 1630.0, 'init_ShelterA_1_338': 1640.0, 'init_ShelterA_1_335': 1650.0, 'init_ShelterA_2_382': 1650.0, 'init_ShelterA_1_391': 1660.0, 'init_ShelterA_2_386': 1660.0, 'init_ShelterA_1_333': 1670.0, 'init_ShelterA_1_334': 1670.0, 'init_ShelterA_1_380': 1670.0, 'init_ShelterA_1_381': 1670.0, 'init_ShelterA_1_383': 1670.0, 'init_ShelterA_1_385': 1670.0, 'init_ShelterA_1_390': 1670.0, 'init_ShelterA_1_323': 1680.0, 'init_ShelterA_1_343': 1690.0, 'init_ShelterA_1_336': 1700.0, 'init_ShelterA_1_337': 1700.0, 'init_ShelterA_1_351': 1700.0, 'init_ShelterA_2_356': 1700.0, 'init_ShelterA_1_352': 1710.0, 'init_ShelterA_1_361': 1730.0, 'init_ShelterA_1_370': 1740.0, 'init_ShelterA_1_371': 1740.0, 'init_ShelterA_1_372': 1740.0, 'init_ShelterA_1_373': 1740.0, 'init_ShelterA_1_398': 1740.0, 'init_ShelterA_1_399': 1740.0, 'init_ShelterA_1_355': 1750.0, 'init_ShelterA_1_359': 1760.0, 'init_ShelterA_2_360': 1770.0, 'init_ShelterA_1_364': 1790.0, 'init_ShelterA_1_366': 1790.0, 'init_ShelterA_1_369': 1790.0, 'init_ShelterA_1_362': 1800.0, 'init_ShelterA_1_353': 1810.0, 'init_ShelterA_1_354': 1810.0, 'init_ShelterA_1_357': 1810.0, 'init_ShelterA_1_358': 1820.0, 'init_ShelterA_1_375': 1860.0, 'init_ShelterA_1_368': 1900.0}
pedestrian_count:0
route_changed_vehicle_count:291
route_change_event_count:291
rate_vehicle_abandonment:0.00%
wrong_way_driving_count:0
vehicle_abandonment_count:0
normalcy_bias_route_change_count:166
majority_bias_route_change_count:125
lane_changed_vehicle_count:0
info_obtained_lanechange_count:0
elapsed_time_lanechange_count:0
majority_bias_lanechange_count:0

=== Job Result ===
end=2026-07-13T02:26:24+0900
elapsed_seconds=425
exit_code=0
status=SUCCESS
