=== Job Info ===
job_name=va_s10_e1.0_v1.0_r26
host=schubert
pid=131317
scenario=10
early_rate=1.0
v2v_rate=1.0
run_id=26
config=/home/katagi/vehicle-assistant-system/scenarios/JIP/configs/config_scenario_10.toml
output_dir=/home/katagi/vehicle-assistant-system/schubert_logs/va_s10_e1.0_v1.0_r26
start=2026-07-13T02:51:09+0900
python_version=Python 3.12.3
sumo_version=Eclipse SUMO sumo Version v1_23_1+0435-630512a

=== Command ===
cd /home/katagi/vehicle-assistant-system/schubert_logs/va_s10_e1.0_v1.0_r26
PYTHONPATH=/home/katagi/vehicle-assistant-system:/home/katagi/tmp/sumo/tools:/home/katagi/local/sumo/tools:/home/katagi/tmp/sumo/tools:/home/katagi/local/sumo/tools:/home/katagi/tmp/sumo/tools:/home/katagi/local/sumo/tools: python3 -W ignore::UserWarning -m scenarios.JIP.1-1-4.simulation.runner_simulator --nogui /home/katagi/vehicle-assistant-system/scenarios/JIP/configs/config_scenario_10.toml 1.0 1.0
simulation_pid=131337
Step #0.00 (0ms ?*RT. ?UPS, TraCI: 334ms, vehicles TOT 1 ACT 1 BUF 0)                     Step #100.00 (0ms ?*RT. ?UPS, TraCI: 18ms, vehicles TOT 26 ACT 26 BUF 0)                  Step #200.00 (0ms ?*RT. ?UPS, TraCI: 36ms, vehicles TOT 51 ACT 51 BUF 0)                  Step #300.00 (1ms ~= 1000.00*RT, ~77000.00UPS, TraCI: 56ms, vehicles TOT 77 ACT 77 BUF 0) Step #400.00 (0ms ?*RT. ?UPS, TraCI: 1841ms, vehicles TOT 104 ACT 104 BUF 0)              Step #500.00 (0ms ?*RT. ?UPS, TraCI: 1242ms, vehicles TOT 131 ACT 131 BUF 0)              Step #600.00 (1ms ~= 1000.00*RT, ~158000.00UPS, TraCI: 944ms, vehicles TOT 158 ACT 158 BUFStep #700.00 (1ms ~= 1000.00*RT, ~177000.00UPS, TraCI: 2129ms, vehicles TOT 184 ACT 177 BUStep #800.00 (1ms ~= 1000.00*RT, ~194000.00UPS, TraCI: 2592ms, vehicles TOT 217 ACT 194 BUStep #900.00 (1ms ~= 1000.00*RT, ~213000.00UPS, TraCI: 2133ms, vehicles TOT 243 ACT 213 BUStep #1000.00 (0ms ?*RT. ?UPS, TraCI: 2320ms, vehicles TOT 274 ACT 243 BUF 31)            Step #1100.00 (1ms ~= 1000.00*RT, ~263000.00UPS, TraCI: 2151ms, vehicles TOT 308 ACT 263 BStep #1200.00 (1ms ~= 1000.00*RT, ~279000.00UPS, TraCI: 2052ms, vehicles TOT 337 ACT 279 BStep #1300.00 (1ms ~= 1000.00*RT, ~300000.00UPS, TraCI: 1996ms, vehicles TOT 366 ACT 300 BStep #1400.00 (1ms ~= 1000.00*RT, ~327000.00UPS, TraCI: 2242ms, vehicles TOT 395 ACT 327 BStep #1500.00 (1ms ~= 1000.00*RT, ~344000.00UPS, TraCI: 2770ms, vehicles TOT 425 ACT 344 BStep #1600.00 (0ms ?*RT. ?UPS, TraCI: 3047ms, vehicles TOT 457 ACT 370 BUF 30)            Step #1700.00 (1ms ~= 1000.00*RT, ~380000.00UPS, TraCI: 2391ms, vehicles TOT 485 ACT 380 BStep #1800.00 (0ms ?*RT. ?UPS, TraCI: 2870ms, vehicles TOT 505 ACT 400 BUF 0)             Step #1900.00 (1ms ~= 1000.00*RT, ~400000.00UPS, TraCI: 2468ms, vehicles TOT 505 ACT 400 BStep #2000.00 (1ms ~= 1000.00*RT, ~400000.00UPS, TraCI: 1607ms, vehicles TOT 505 ACT 400 BStep #2100.00 (1ms ~= 1000.00*RT, ~400000.00UPS, TraCI: 980ms, vehicles TOT 505 ACT 400 BUStep #2200.00 (0ms ?*RT. ?UPS, TraCI: 545ms, vehicles TOT 505 ACT 400 BUF 0)              Step #2300.00 (0ms ?*RT. ?UPS, TraCI: 98ms, vehicles TOT 505 ACT 400 BUF 0)               Step #2400.00 (0ms ?*RT. ?UPS, TraCI: 90ms, vehicles TOT 505 ACT 400 BUF 0)               Step #2500.00 (0ms ?*RT. ?UPS, TraCI: 77ms, vehicles TOT 505 ACT 400 BUF 0)               Step #2600.00 (0ms ?*RT. ?UPS, TraCI: 77ms, vehicles TOT 505 ACT 400 BUF 0)               Step #2700.00 (0ms ?*RT. ?UPS, TraCI: 78ms, vehicles TOT 505 ACT 400 BUF 0)               Step #2800.00 (0ms ?*RT. ?UPS, TraCI: 78ms, vehicles TOT 505 ACT 400 BUF 0)               Step #2900.00 (0ms ?*RT. ?UPS, TraCI: 77ms, vehicles TOT 505 ACT 400 BUF 0)               Step #3000.00 (0ms ?*RT. ?UPS, TraCI: 77ms, vehicles TOT 505 ACT 400 BUF 0)               
 Retrying in 1 seconds
出現数: {'A2': 38, 'A1': 362}
割合:
  Total: 400
  A1: 362 (90.50%)
  A2: 38 (9.50%)
  B1: 0 (0.00%)
  B2: 0 (0.00%)
mean elapsed_time: 545.3975
OK all vehs arrived 
平均渋滞継続時間: 479.65秒
OK all vehicle abandonment were detected
291
109
===== Simlation Result Summary =====
avg_congestion_duration: 479.65 
arrival_time_by_vehID_dict:{'init_ShelterA_1_1': 229.0, 'init_ShelterA_1_2': 236.0, 'init_ShelterA_1_3': 243.0, 'init_ShelterA_1_4': 248.0, 'init_ShelterA_1_5': 252.0, 'init_ShelterA_1_6': 286.0, 'init_ShelterA_1_7': 293.0, 'init_ShelterA_1_8': 298.0, 'init_ShelterA_1_9': 304.0, 'init_ShelterA_1_10': 311.0, 'init_ShelterA_1_11': 318.0, 'init_ShelterA_1_14': 325.0, 'init_ShelterA_2_0': 329.0, 'init_ShelterA_1_15': 333.0, 'init_ShelterA_1_16': 342.0, 'init_ShelterA_1_17': 350.0, 'init_ShelterA_1_18': 356.0, 'init_ShelterA_1_19': 360.0, 'init_ShelterA_1_21': 365.0, 'init_ShelterA_1_24': 374.0, 'init_ShelterA_1_25': 379.0, 'init_ShelterA_1_28': 384.0, 'init_ShelterA_1_29': 393.0, 'init_ShelterA_1_30': 398.0, 'init_ShelterA_2_12': 401.0, 'init_ShelterA_1_32': 403.0, 'init_ShelterA_1_33': 409.0, 'init_ShelterA_2_13': 413.0, 'init_ShelterA_1_34': 414.0, 'init_ShelterA_1_35': 419.0, 'init_ShelterA_2_20': 419.0, 'init_ShelterA_2_22': 424.0, 'init_ShelterA_1_36': 426.0, 'init_ShelterA_1_37': 431.0, 'init_ShelterA_1_38': 435.0, 'init_ShelterA_1_39': 463.0, 'init_ShelterA_2_23': 470.0, 'init_ShelterA_1_42': 476.0, 'init_ShelterA_2_26': 479.0, 'init_ShelterA_1_43': 483.0, 'init_ShelterA_2_27': 485.0, 'init_ShelterA_1_44': 488.0, 'init_ShelterA_2_31': 490.0, 'init_ShelterA_1_46': 493.0, 'init_ShelterA_1_47': 499.0, 'init_ShelterA_1_48': 505.0, 'init_ShelterA_1_49': 512.0, 'init_ShelterA_1_50': 519.0, 'init_ShelterA_1_52': 527.0, 'init_ShelterA_1_53': 533.0, 'init_ShelterA_1_54': 539.0, 'init_ShelterA_1_55': 544.0, 'init_ShelterA_2_56': 546.0, 'init_ShelterA_2_60': 548.0, 'init_ShelterA_1_40': 554.0, 'init_ShelterA_1_41': 557.0, 'init_ShelterA_2_65': 557.0, 'init_ShelterA_1_66': 577.0, 'init_ShelterA_1_45': 579.0, 'init_ShelterA_2_69': 579.0, 'init_ShelterA_1_51': 581.0, 'init_ShelterA_1_57': 629.0, 'init_ShelterA_2_73': 630.0, 'init_ShelterA_1_58': 636.0, 'init_ShelterA_1_59': 643.0, 'init_ShelterA_1_75': 645.0, 'init_ShelterA_1_61': 653.0, 'init_ShelterA_1_79': 657.0, 'init_ShelterA_1_62': 663.0, 'init_ShelterA_1_63': 665.0, 'init_ShelterA_2_86': 667.0, 'init_ShelterA_1_64': 668.0, 'init_ShelterA_2_88': 669.0, 'init_ShelterA_1_67': 671.0, 'init_ShelterA_1_68': 692.0, 'init_ShelterA_1_70': 695.0, 'init_ShelterA_1_71': 698.0, 'init_ShelterA_1_72': 701.0, 'init_ShelterA_1_74': 715.0, 'init_ShelterA_1_76': 736.0, 'init_ShelterA_1_77': 738.0, 'init_ShelterA_1_90': 738.0, 'init_ShelterA_1_78': 743.0, 'init_ShelterA_1_80': 745.0, 'init_ShelterA_1_95': 750.0, 'init_ShelterA_1_81': 754.0, 'init_ShelterA_1_82': 756.0, 'init_ShelterA_1_83': 759.0, 'init_ShelterA_1_84': 762.0, 'init_ShelterA_1_98': 763.0, 'init_ShelterA_1_102': 768.0, 'init_ShelterA_1_85': 768.0, 'init_ShelterA_1_87': 770.0, 'init_ShelterA_1_89': 774.0, 'init_ShelterA_1_91': 809.0, 'init_ShelterA_1_106': 823.0, 'init_ShelterA_1_107': 830.0, 'init_ShelterA_2_109': 832.0, 'init_ShelterA_1_92': 839.0, 'init_ShelterA_1_110': 840.0, 'init_ShelterA_1_93': 841.0, 'init_ShelterA_1_94': 844.0, 'init_ShelterA_1_111': 846.0, 'init_ShelterA_1_112': 853.0, 'init_ShelterA_1_96': 858.0, 'init_ShelterA_1_113': 860.0, 'init_ShelterA_1_97': 860.0, 'init_ShelterA_1_99': 862.0, 'init_ShelterA_1_100': 865.0, 'init_ShelterA_1_101': 868.0, 'init_ShelterA_1_114': 868.0, 'init_ShelterA_1_103': 871.0, 'init_ShelterA_1_104': 874.0, 'init_ShelterA_1_105': 877.0, 'init_ShelterA_1_116': 877.0, 'init_ShelterA_1_117': 885.0, 'init_ShelterA_1_118': 891.0, 'init_ShelterA_2_119': 893.0, 'init_ShelterA_1_122': 898.0, 'init_ShelterA_1_108': 908.0, 'init_ShelterA_1_123': 908.0, 'init_ShelterA_1_124': 916.0, 'init_ShelterA_1_125': 921.0, 'init_ShelterA_1_126': 927.0, 'init_ShelterA_1_115': 929.0, 'init_ShelterA_1_129': 933.0, 'init_ShelterA_2_131': 935.0, 'init_ShelterA_1_120': 938.0, 'init_ShelterA_1_132': 940.0, 'init_ShelterA_1_135': 948.0, 'init_ShelterA_1_121': 953.0, 'init_ShelterA_1_137': 954.0, 'init_ShelterA_1_138': 958.0, 'init_ShelterA_1_140': 1003.0, 'init_ShelterA_1_141': 1010.0, 'init_ShelterA_1_127': 1012.0, 'init_ShelterA_1_128': 1014.0, 'init_ShelterA_1_142': 1016.0, 'init_ShelterA_1_143': 1022.0, 'init_ShelterA_1_130': 1028.0, 'init_ShelterA_1_144': 1029.0, 'init_ShelterA_1_145': 1036.0, 'init_ShelterA_1_146': 1044.0, 'init_ShelterA_1_133': 1050.0, 'init_ShelterA_1_134': 1052.0, 'init_ShelterA_1_147': 1053.0, 'init_ShelterA_1_136': 1054.0, 'init_ShelterA_1_139': 1057.0, 'init_ShelterA_1_148': 1061.0, 'init_ShelterA_1_149': 1071.0, 'init_ShelterA_1_150': 1080.0, 'init_ShelterA_1_151': 1090.0, 'init_ShelterA_1_154': 1099.0, 'init_ShelterA_1_156': 1109.0, 'init_ShelterA_1_160': 1119.0, 'init_ShelterA_1_161': 1128.0, 'init_ShelterA_1_162': 1138.0, 'init_ShelterA_1_163': 1148.0, 'init_ShelterA_1_164': 1158.0, 'init_ShelterA_1_165': 1167.0, 'init_ShelterA_1_166': 1175.0, 'init_ShelterA_1_167': 1180.0, 'init_ShelterA_1_168': 1186.0, 'init_ShelterA_1_178': 1192.0, 'init_ShelterA_1_180': 1198.0, 'init_ShelterA_1_181': 1206.0, 'newveh_ShelterA_2_152_0': 1210.0, 'init_ShelterA_1_182': 1215.0, 'init_ShelterA_1_183': 1224.0, 'init_ShelterA_1_184': 1234.0, 'newveh_ShelterA_2_159_5': 1234.0, 'newveh_ShelterA_2_158_4': 1241.0, 'init_ShelterA_1_185': 1243.0, 'newveh_ShelterA_2_157_3': 1246.0, 'init_ShelterA_1_186': 1251.0, 'newveh_ShelterA_2_155_2': 1253.0, 'init_ShelterA_1_187': 1257.0, 'newveh_ShelterA_1_175_8': 1261.0, 'init_ShelterA_2_190': 1264.0, 'newveh_ShelterA_2_153_1': 1264.0, 'init_ShelterA_1_170': 1267.0, 'init_ShelterA_1_171': 1269.0, 'newveh_ShelterA_2_169_6': 1274.0, 'newveh_ShelterA_1_193_15': 1285.0, 'init_ShelterA_1_188': 1292.0, 'init_ShelterA_1_205': 1293.0, 'init_ShelterA_1_206': 1300.0, 'init_ShelterA_1_207': 1307.0, 'newveh_ShelterA_2_173_7': 1312.0, 'init_ShelterA_1_189': 1315.0, 'init_ShelterA_1_208': 1315.0, 'init_ShelterA_1_191': 1317.0, 'init_ShelterA_1_209': 1321.0, 'init_ShelterA_1_211': 1326.0, 'init_ShelterA_1_213': 1330.0, 'newveh_ShelterA_2_176_10': 1339.0, 'newveh_ShelterA_2_174_9': 1343.0, 'newveh_ShelterA_1_202_22': 1369.0, 'init_ShelterA_1_218': 1385.0, 'init_ShelterA_1_219': 1391.0, 'newveh_ShelterA_2_172_11': 1392.0, 'init_ShelterA_1_220': 1395.0, 'newveh_ShelterA_2_179_13': 1436.0, 'newveh_ShelterA_2_177_12': 1445.0, 'newveh_ShelterA_2_192_14': 1453.0, 'init_ShelterA_1_210': 1455.0, 'newveh_ShelterA_2_194_16': 1466.0, 'init_ShelterA_1_212': 1468.0, 'init_ShelterA_1_237': 1473.0, 'newveh_ShelterA_2_195_17': 1476.0, 'init_ShelterA_1_214': 1479.0, 'newveh_ShelterA_2_196_18': 1486.0, 'init_ShelterA_1_241': 1487.0, 'newveh_ShelterA_2_201_21': 1491.0, 'newveh_ShelterA_2_197_19': 1498.0, 'newveh_ShelterA_2_198_20': 1505.0, 'newveh_ShelterA_2_199_23': 1513.0, 'newveh_ShelterA_2_200_24': 1522.0, 'newveh_ShelterA_2_204_26': 1531.0, 'newveh_ShelterA_2_203_25': 1552.0, 'init_ShelterA_1_221': 1555.0, 'init_ShelterA_1_222': 1557.0, 'init_ShelterA_1_224': 1559.0, 'newveh_ShelterA_1_234_30': 1560.0, 'init_ShelterA_1_225': 1562.0, 'init_ShelterA_1_226': 1565.0, 'init_ShelterA_1_268': 1570.0, 'newveh_ShelterA_2_236_57': 1570.0, 'newveh_ShelterA_2_223_55': 1575.0, 'init_ShelterA_1_269': 1579.0, 'newveh_ShelterA_2_231_56': 1583.0, 'init_ShelterA_1_270': 1584.0, 'init_ShelterA_2_271': 1586.0, 'init_ShelterA_1_272': 1592.0, 'init_ShelterA_1_283': 1596.0, 'newveh_ShelterA_2_247_58': 1605.0, 'init_ShelterA_1_227': 1607.0, 'init_ShelterA_1_228': 1609.0, 'init_ShelterA_1_229': 1611.0, 'init_ShelterA_1_230': 1614.0, 'init_ShelterA_1_232': 1616.0, 'init_ShelterA_1_233': 1619.0, 'init_ShelterA_1_235': 1622.0, 'init_ShelterA_1_238': 1625.0, 'newveh_ShelterA_2_215_27': 1634.0, 'init_ShelterA_1_239': 1636.0, 'init_ShelterA_1_240': 1638.0, 'newveh_ShelterA_1_250_31': 1639.0, 'init_ShelterA_1_284': 1646.0, 'newveh_ShelterA_2_216_28': 1648.0, 'init_ShelterA_1_285': 1652.0, 'newveh_ShelterA_2_217_29': 1657.0, 'init_ShelterA_1_248': 1659.0, 'init_ShelterA_1_286': 1659.0, 'init_ShelterA_1_251': 1661.0, 'init_ShelterA_1_287': 1665.0, 'init_ShelterA_1_288': 1673.0, 'newveh_ShelterA_1_257_37': 1680.0, 'newveh_ShelterA_2_242_59': 1683.0, 'init_ShelterA_1_254': 1685.0, 'init_ShelterA_1_289': 1687.0, 'init_ShelterA_1_255': 1688.0, 'init_ShelterA_1_256': 1690.0, 'init_ShelterA_1_290': 1691.0, 'init_ShelterA_1_261': 1692.0, 'init_ShelterA_1_264': 1694.0, 'init_ShelterA_1_291': 1696.0, 'init_ShelterA_1_265': 1697.0, 'init_ShelterA_1_266': 1700.0, 'init_ShelterA_1_267': 1703.0, 'newveh_ShelterA_2_259_36': 1709.0, 'newveh_ShelterA_2_258_35': 1713.0, 'newveh_ShelterA_1_260_44': 1731.0, 'newveh_ShelterA_2_252_33': 1736.0, 'init_ShelterA_1_292': 1737.0, 'init_ShelterA_1_293': 1743.0, 'init_ShelterA_1_294': 1749.0, 'newveh_ShelterA_2_245_32': 1752.0, 'init_ShelterA_1_295': 1755.0, 'newveh_ShelterA_2_253_34': 1759.0, 'init_ShelterA_1_297': 1761.0, 'newveh_ShelterA_2_243_38': 1765.0, 'init_ShelterA_1_298': 1768.0, 'newveh_ShelterA_2_262_42': 1773.0, 'init_ShelterA_1_299': 1776.0, 'newveh_ShelterA_2_244_39': 1779.0, 'init_ShelterA_1_300': 1783.0, 'newveh_ShelterA_2_263_43': 1783.0, 'init_ShelterA_1_302': 1787.0, 'newveh_ShelterA_2_249_41': 1787.0, 'newveh_ShelterA_1_282_45': 1791.0, 'newveh_ShelterA_2_296_73': 1803.0, 'newveh_ShelterA_2_246_40': 1820.0, 'init_ShelterA_1_317': 1830.0, 'init_ShelterA_1_318': 1836.0, 'init_ShelterA_1_301': 1838.0, 'init_ShelterA_1_319': 1840.0, 'init_ShelterA_1_303': 1845.0, 'init_ShelterA_1_304': 1847.0, 'init_ShelterA_1_320': 1850.0, 'init_ShelterA_1_322': 1856.0, 'init_ShelterA_1_311': 1857.0, 'init_ShelterA_1_312': 1858.0, 'init_ShelterA_1_323': 1860.0, 'newveh_ShelterA_2_336_87': 1878.0, 'init_ShelterA_1_325': 1906.0, 'init_ShelterA_1_327': 1913.0, 'newveh_ShelterA_2_275_46': 1913.0, 'init_ShelterA_1_314': 1915.0, 'init_ShelterA_1_315': 1917.0, 'init_ShelterA_1_328': 1918.0, 'init_ShelterA_1_329': 1924.0, 'init_ShelterA_1_332': 1930.0, 'init_ShelterA_1_333': 1936.0, 'newveh_ShelterA_2_273_47': 1936.0, 'init_ShelterA_1_334': 1944.0, 'newveh_ShelterA_2_281_54': 1944.0, 'newveh_ShelterA_2_280_53': 1949.0, 'init_ShelterA_1_335': 1951.0, 'newveh_ShelterA_2_279_52': 1955.0, 'init_ShelterA_1_337': 1960.0, 'newveh_ShelterA_2_278_51': 1962.0, 'init_ShelterA_1_338': 1968.0, 'newveh_ShelterA_2_277_50': 1968.0, 'newveh_ShelterA_2_276_49': 1976.0, 'init_ShelterA_1_339': 1977.0, 'newveh_ShelterA_2_274_48': 1984.0, 'init_ShelterA_1_341': 1987.0, 'newveh_ShelterA_2_340_102': 1991.0, 'init_ShelterA_1_343': 1996.0, 'newveh_ShelterA_2_356_104': 1996.0, 'newveh_ShelterA_2_350_103': 2000.0, 'init_ShelterA_1_344': 2005.0, 'init_ShelterA_1_345': 2014.0, 'init_ShelterA_1_342': 2023.0, 'init_ShelterA_1_349': 2023.0, 'init_ShelterA_1_351': 2032.0, 'init_ShelterA_1_354': 2042.0, 'init_ShelterA_1_357': 2051.0, 'init_ShelterA_1_358': 2061.0, 'init_ShelterA_1_359': 2071.0, 'init_ShelterA_1_361': 2081.0, 'init_ShelterA_1_362': 2090.0, 'newveh_ShelterA_2_305_60': 2096.0, 'init_ShelterA_1_363': 2100.0, 'init_ShelterA_1_365': 2109.0, 'init_ShelterA_1_367': 2119.0, 'newveh_ShelterA_2_310_65': 2120.0, 'init_ShelterA_1_369': 2128.0, 'newveh_ShelterA_2_309_64': 2130.0, 'newveh_ShelterA_2_308_63': 2136.0, 'newveh_ShelterA_1_316_66': 2138.0, 'newveh_ShelterA_2_307_62': 2141.0, 'init_ShelterA_1_371': 2147.0, 'newveh_ShelterA_2_306_61': 2151.0, 'init_ShelterA_1_372': 2157.0, 'init_ShelterA_1_373': 2166.0, 'init_ShelterA_1_374': 2176.0, 'newveh_ShelterA_1_313_67': 2186.0, 'init_ShelterA_1_376': 2195.0, 'init_ShelterA_1_377': 2205.0, 'newveh_ShelterA_2_321_68': 2209.0, 'init_ShelterA_1_379': 2214.0, 'init_ShelterA_1_380': 2224.0, 'newveh_ShelterA_2_331_72': 2228.0, 'init_ShelterA_1_381': 2233.0, 'init_ShelterA_1_382': 2243.0, 'init_ShelterA_1_383': 2252.0, 'init_ShelterA_1_384': 2262.0, 'init_ShelterA_1_394': 2271.0, 'newveh_ShelterA_1_347_74': 2281.0, 'newveh_ShelterA_2_330_71': 2286.0, 'newveh_ShelterA_1_352_75': 2290.0, 'newveh_ShelterA_2_326_70': 2293.0, 'newveh_ShelterA_1_360_77': 2299.0, 'newveh_ShelterA_2_324_69': 2300.0, 'newveh_ShelterA_2_353_80': 2305.0, 'newveh_ShelterA_1_355_76': 2306.0, 'newveh_ShelterA_2_348_79': 2310.0, 'newveh_ShelterA_1_368_81': 2312.0, 'newveh_ShelterA_2_346_78': 2315.0, 'newveh_ShelterA_1_378_86': 2316.0, 'newveh_ShelterA_1_391_88': 2321.0, 'newveh_ShelterA_2_364_82': 2321.0, 'newveh_ShelterA_2_366_83': 2329.0, 'newveh_ShelterA_2_375_85': 2333.0, 'newveh_ShelterA_2_370_84': 2338.0, 'newveh_ShelterA_2_385_89': 2374.0, 'newveh_ShelterA_2_396_98': 2381.0, 'newveh_ShelterA_2_395_97': 2387.0, 'newveh_ShelterA_2_393_96': 2392.0, 'newveh_ShelterA_2_392_95': 2398.0, 'newveh_ShelterA_2_390_94': 2405.0, 'newveh_ShelterA_2_389_93': 2412.0, 'newveh_ShelterA_2_388_92': 2420.0, 'newveh_ShelterA_2_387_91': 2429.0, 'newveh_ShelterA_2_386_90': 2437.0, 'newveh_ShelterA_2_397_99': 2444.0, 'newveh_ShelterA_2_398_100': 2449.0, 'newveh_ShelterA_2_399_101': 2453.0}
vehicle_abandant_time_by_pedestrianID_dict:{}
walking_distance_by_pedestrianID_dict:{}
route_change_time_by_vehID_dict:{'init_ShelterA_1_40': 370.0, 'init_ShelterA_1_45': 370.0, 'init_ShelterA_1_41': 380.0, 'init_ShelterA_1_51': 380.0, 'init_ShelterA_2_56': 410.0, 'init_ShelterA_1_57': 420.0, 'init_ShelterA_1_58': 420.0, 'init_ShelterA_1_61': 420.0, 'init_ShelterA_1_62': 420.0, 'init_ShelterA_1_64': 420.0, 'init_ShelterA_2_60': 420.0, 'init_ShelterA_2_65': 420.0, 'init_ShelterA_1_59': 430.0, 'init_ShelterA_1_63': 430.0, 'init_ShelterA_1_67': 430.0, 'init_ShelterA_1_68': 430.0, 'init_ShelterA_2_69': 430.0, 'init_ShelterA_1_70': 440.0, 'init_ShelterA_1_71': 440.0, 'init_ShelterA_1_72': 440.0, 'init_ShelterA_1_74': 490.0, 'init_ShelterA_2_73': 490.0, 'init_ShelterA_1_76': 500.0, 'init_ShelterA_1_77': 500.0, 'init_ShelterA_1_78': 500.0, 'init_ShelterA_1_80': 500.0, 'init_ShelterA_1_82': 510.0, 'init_ShelterA_1_84': 510.0, 'init_ShelterA_1_81': 520.0, 'init_ShelterA_1_85': 520.0, 'init_ShelterA_1_87': 520.0, 'init_ShelterA_1_89': 520.0, 'init_ShelterA_2_86': 520.0, 'init_ShelterA_2_88': 520.0, 'init_ShelterA_1_83': 530.0, 'init_ShelterA_1_91': 570.0, 'init_ShelterA_1_92': 580.0, 'init_ShelterA_1_93': 580.0, 'init_ShelterA_1_94': 580.0, 'init_ShelterA_2_109': 580.0, 'init_ShelterA_1_108': 590.0, 'init_ShelterA_1_96': 590.0, 'init_ShelterA_1_97': 590.0, 'init_ShelterA_1_100': 600.0, 'init_ShelterA_1_101': 600.0, 'init_ShelterA_1_103': 600.0, 'init_ShelterA_1_104': 600.0, 'init_ShelterA_1_105': 600.0, 'init_ShelterA_1_99': 600.0, 'init_ShelterA_1_152': 640.0, 'init_ShelterA_1_153': 640.0, 'init_ShelterA_1_155': 640.0, 'init_ShelterA_1_157': 640.0, 'init_ShelterA_1_158': 640.0, 'init_ShelterA_1_159': 640.0, 'init_ShelterA_1_169': 680.0, 'init_ShelterA_2_119': 680.0, 'init_ShelterA_1_121': 690.0, 'init_ShelterA_1_115': 700.0, 'init_ShelterA_1_120': 700.0, 'init_ShelterA_1_170': 700.0, 'init_ShelterA_1_171': 700.0, 'init_ShelterA_1_173': 710.0, 'init_ShelterA_2_175': 710.0, 'init_ShelterA_1_174': 720.0, 'init_ShelterA_1_176': 720.0, 'init_ShelterA_1_172': 730.0, 'init_ShelterA_1_177': 730.0, 'init_ShelterA_1_179': 730.0, 'init_ShelterA_1_188': 750.0, 'init_ShelterA_1_189': 750.0, 'init_ShelterA_2_131': 750.0, 'init_ShelterA_2_190': 750.0, 'init_ShelterA_1_128': 760.0, 'init_ShelterA_1_130': 760.0, 'init_ShelterA_1_134': 760.0, 'init_ShelterA_1_191': 760.0, 'init_ShelterA_1_192': 760.0, 'init_ShelterA_1_127': 770.0, 'init_ShelterA_1_133': 770.0, 'init_ShelterA_1_136': 770.0, 'init_ShelterA_1_139': 770.0, 'init_ShelterA_2_193': 770.0, 'init_ShelterA_1_194': 790.0, 'init_ShelterA_1_195': 800.0, 'init_ShelterA_1_196': 800.0, 'init_ShelterA_1_197': 800.0, 'init_ShelterA_1_198': 800.0, 'init_ShelterA_1_201': 800.0, 'init_ShelterA_2_202': 800.0, 'init_ShelterA_1_199': 810.0, 'init_ShelterA_1_200': 810.0, 'init_ShelterA_1_203': 810.0, 'init_ShelterA_1_204': 810.0, 'init_ShelterA_1_215': 890.0, 'init_ShelterA_1_216': 890.0, 'init_ShelterA_1_217': 890.0, 'init_ShelterA_2_234': 980.0, 'init_ShelterA_2_250': 1040.0, 'init_ShelterA_1_245': 1050.0, 'init_ShelterA_1_252': 1050.0, 'init_ShelterA_1_253': 1050.0, 'init_ShelterA_1_258': 1050.0, 'init_ShelterA_1_259': 1050.0, 'init_ShelterA_2_257': 1050.0, 'init_ShelterA_1_243': 1060.0, 'init_ShelterA_1_244': 1060.0, 'init_ShelterA_1_246': 1060.0, 'init_ShelterA_1_249': 1060.0, 'init_ShelterA_1_262': 1060.0, 'init_ShelterA_1_263': 1060.0, 'init_ShelterA_2_260': 1060.0, 'init_ShelterA_2_282': 1120.0, 'init_ShelterA_1_275': 1130.0, 'init_ShelterA_1_273': 1150.0, 'init_ShelterA_1_274': 1150.0, 'init_ShelterA_1_276': 1150.0, 'init_ShelterA_1_277': 1150.0, 'init_ShelterA_1_278': 1150.0, 'init_ShelterA_1_279': 1150.0, 'init_ShelterA_1_280': 1150.0, 'init_ShelterA_1_281': 1150.0, 'init_ShelterA_1_223': 1170.0, 'init_ShelterA_1_231': 1180.0, 'init_ShelterA_1_214': 1190.0, 'init_ShelterA_1_235': 1190.0, 'init_ShelterA_1_236': 1190.0, 'init_ShelterA_1_210': 1200.0, 'init_ShelterA_1_212': 1200.0, 'init_ShelterA_1_240': 1210.0, 'init_ShelterA_1_256': 1220.0, 'init_ShelterA_1_261': 1220.0, 'init_ShelterA_1_255': 1230.0, 'init_ShelterA_1_251': 1240.0, 'init_ShelterA_1_254': 1240.0, 'init_ShelterA_1_248': 1250.0, 'init_ShelterA_1_238': 1260.0, 'init_ShelterA_1_247': 1260.0, 'init_ShelterA_1_239': 1270.0, 'init_ShelterA_1_242': 1270.0, 'init_ShelterA_1_265': 1270.0, 'init_ShelterA_1_266': 1270.0, 'init_ShelterA_1_264': 1280.0, 'init_ShelterA_1_233': 1290.0, 'init_ShelterA_1_305': 1290.0, 'init_ShelterA_1_306': 1290.0, 'init_ShelterA_1_307': 1290.0, 'init_ShelterA_1_308': 1290.0, 'init_ShelterA_1_309': 1290.0, 'init_ShelterA_1_310': 1290.0, 'init_ShelterA_1_229': 1300.0, 'init_ShelterA_1_232': 1300.0, 'init_ShelterA_1_222': 1310.0, 'init_ShelterA_1_227': 1310.0, 'init_ShelterA_1_228': 1310.0, 'init_ShelterA_1_230': 1310.0, 'init_ShelterA_1_224': 1320.0, 'init_ShelterA_1_225': 1320.0, 'init_ShelterA_1_226': 1320.0, 'init_ShelterA_2_316': 1320.0, 'init_ShelterA_1_221': 1330.0, 'init_ShelterA_1_267': 1330.0, 'init_ShelterA_2_271': 1330.0, 'init_ShelterA_2_313': 1330.0, 'init_ShelterA_1_321': 1410.0, 'init_ShelterA_1_324': 1410.0, 'init_ShelterA_1_326': 1410.0, 'init_ShelterA_1_330': 1410.0, 'init_ShelterA_1_331': 1410.0, 'init_ShelterA_1_296': 1440.0, 'init_ShelterA_2_347': 1460.0, 'init_ShelterA_2_352': 1470.0, 'init_ShelterA_2_355': 1470.0, 'init_ShelterA_2_360': 1480.0, 'init_ShelterA_1_346': 1490.0, 'init_ShelterA_1_348': 1490.0, 'init_ShelterA_1_353': 1490.0, 'init_ShelterA_2_368': 1560.0, 'init_ShelterA_1_364': 1580.0, 'init_ShelterA_1_366': 1580.0, 'init_ShelterA_1_370': 1580.0, 'init_ShelterA_1_375': 1580.0, 'init_ShelterA_2_378': 1580.0, 'init_ShelterA_1_336': 1610.0, 'init_ShelterA_1_303': 1630.0, 'init_ShelterA_2_391': 1630.0, 'init_ShelterA_1_312': 1640.0, 'init_ShelterA_1_314': 1640.0, 'init_ShelterA_1_342': 1640.0, 'init_ShelterA_1_304': 1650.0, 'init_ShelterA_1_385': 1650.0, 'init_ShelterA_1_386': 1650.0, 'init_ShelterA_1_387': 1650.0, 'init_ShelterA_1_388': 1650.0, 'init_ShelterA_1_389': 1650.0, 'init_ShelterA_1_390': 1650.0, 'init_ShelterA_1_392': 1650.0, 'init_ShelterA_1_393': 1650.0, 'init_ShelterA_1_395': 1650.0, 'init_ShelterA_1_301': 1660.0, 'init_ShelterA_1_311': 1660.0, 'init_ShelterA_1_315': 1660.0, 'init_ShelterA_1_396': 1670.0, 'init_ShelterA_1_397': 1670.0, 'init_ShelterA_1_398': 1670.0, 'init_ShelterA_1_399': 1670.0, 'init_ShelterA_1_340': 1680.0, 'init_ShelterA_1_350': 1690.0, 'init_ShelterA_1_356': 1690.0}
pedestrian_count:0
route_changed_vehicle_count:209
route_change_event_count:209
rate_vehicle_abandonment:0.00%
wrong_way_driving_count:0
vehicle_abandonment_count:0
normalcy_bias_route_change_count:103
majority_bias_route_change_count:106
lane_changed_vehicle_count:0
info_obtained_lanechange_count:0
elapsed_time_lanechange_count:0
majority_bias_lanechange_count:0

=== Job Result ===
end=2026-07-13T03:00:18+0900
elapsed_seconds=549
exit_code=0
status=SUCCESS
