=== Job Info ===
job_name=va_s3_e1.0_v1.0_r4
host=schubert
pid=109612
scenario=3
early_rate=1.0
v2v_rate=1.0
run_id=4
config=/home/katagi/vehicle-assistant-system/scenarios/JIP/configs/config_scenario_3.toml
output_dir=/home/katagi/vehicle-assistant-system/schubert_logs/va_s3_e1.0_v1.0_r4
start=2026-07-13T00:59:01+0900
python_version=Python 3.12.3
sumo_version=Eclipse SUMO sumo Version v1_23_1+0435-630512a

=== Command ===
cd /home/katagi/vehicle-assistant-system/schubert_logs/va_s3_e1.0_v1.0_r4
PYTHONPATH=/home/katagi/vehicle-assistant-system:/home/katagi/tmp/sumo/tools:/home/katagi/local/sumo/tools:/home/katagi/tmp/sumo/tools:/home/katagi/local/sumo/tools:/home/katagi/tmp/sumo/tools:/home/katagi/local/sumo/tools: python3 -W ignore::UserWarning -m scenarios.JIP.1-1-4.simulation.runner_simulator --nogui /home/katagi/vehicle-assistant-system/scenarios/JIP/configs/config_scenario_3.toml 1.0 1.0
simulation_pid=109632
Step #0.00 (0ms ?*RT. ?UPS, TraCI: 337ms, vehicles TOT 1 ACT 1 BUF 0)                     Step #100.00 (1ms ~= 1000.00*RT, ~26000.00UPS, TraCI: 17ms, vehicles TOT 26 ACT 26 BUF 0) Step #200.00 (0ms ?*RT. ?UPS, TraCI: 38ms, vehicles TOT 51 ACT 51 BUF 0)                  Step #300.00 (0ms ?*RT. ?UPS, TraCI: 56ms, vehicles TOT 77 ACT 77 BUF 0)                  Step #400.00 (1ms ~= 1000.00*RT, ~104000.00UPS, TraCI: 502ms, vehicles TOT 104 ACT 104 BUFStep #500.00 (1ms ~= 1000.00*RT, ~131000.00UPS, TraCI: 1598ms, vehicles TOT 131 ACT 131 BUStep #600.00 (1ms ~= 1000.00*RT, ~158000.00UPS, TraCI: 1478ms, vehicles TOT 158 ACT 158 BUStep #700.00 (0ms ?*RT. ?UPS, TraCI: 1293ms, vehicles TOT 185 ACT 185 BUF 1)              Step #800.00 (0ms ?*RT. ?UPS, TraCI: 1279ms, vehicles TOT 209 ACT 209 BUF 6)              Step #900.00 (1ms ~= 1000.00*RT, ~231000.00UPS, TraCI: 1762ms, vehicles TOT 231 ACT 231 BUStep #1000.00 (0ms ?*RT. ?UPS, TraCI: 1858ms, vehicles TOT 255 ACT 227 BUF 47)            Step #1100.00 (1ms ~= 1000.00*RT, ~255000.00UPS, TraCI: 1654ms, vehicles TOT 285 ACT 255 BStep #1200.00 (1ms ~= 1000.00*RT, ~279000.00UPS, TraCI: 2317ms, vehicles TOT 309 ACT 279 BStep #1300.00 (1ms ~= 1000.00*RT, ~300000.00UPS, TraCI: 1862ms, vehicles TOT 346 ACT 300 BStep #1400.00 (1ms ~= 1000.00*RT, ~321000.00UPS, TraCI: 2025ms, vehicles TOT 378 ACT 321 BStep #1500.00 (1ms ~= 1000.00*RT, ~340000.00UPS, TraCI: 2744ms, vehicles TOT 411 ACT 340 BStep #1600.00 (1ms ~= 1000.00*RT, ~357000.00UPS, TraCI: 2921ms, vehicles TOT 432 ACT 357 BStep #1700.00 (1ms ~= 1000.00*RT, ~380000.00UPS, TraCI: 1958ms, vehicles TOT 463 ACT 380 BStep #1800.00 (1ms ~= 1000.00*RT, ~400000.00UPS, TraCI: 1461ms, vehicles TOT 486 ACT 400 BStep #1900.00 (1ms ~= 1000.00*RT, ~400000.00UPS, TraCI: 1036ms, vehicles TOT 487 ACT 400 BStep #2000.00 (1ms ~= 1000.00*RT, ~400000.00UPS, TraCI: 762ms, vehicles TOT 487 ACT 400 BUStep #2100.00 (1ms ~= 1000.00*RT, ~400000.00UPS, TraCI: 423ms, vehicles TOT 487 ACT 400 BUStep #2200.00 (0ms ?*RT. ?UPS, TraCI: 164ms, vehicles TOT 487 ACT 400 BUF 0)              Step #2300.00 (0ms ?*RT. ?UPS, TraCI: 99ms, vehicles TOT 487 ACT 400 BUF 0)               Step #2400.00 (1ms ~= 1000.00*RT, ~400000.00UPS, TraCI: 86ms, vehicles TOT 487 ACT 400 BUFStep #2500.00 (0ms ?*RT. ?UPS, TraCI: 78ms, vehicles TOT 487 ACT 400 BUF 0)               Step #2600.00 (0ms ?*RT. ?UPS, TraCI: 77ms, vehicles TOT 487 ACT 400 BUF 0)               Step #2700.00 (0ms ?*RT. ?UPS, TraCI: 79ms, vehicles TOT 487 ACT 400 BUF 0)               Step #2800.00 (0ms ?*RT. ?UPS, TraCI: 79ms, vehicles TOT 487 ACT 400 BUF 0)               Step #2900.00 (0ms ?*RT. ?UPS, TraCI: 78ms, vehicles TOT 487 ACT 400 BUF 0)               Step #3000.00 (1ms ~= 1000.00*RT, ~400000.00UPS, TraCI: 77ms, vehicles TOT 487 ACT 400 BUF
 Retrying in 1 seconds
出現数: {'A1': 360, 'A2': 40}
割合:
  Total: 400
  A1: 360 (90.00%)
  A2: 40 (10.00%)
  B1: 0 (0.00%)
  B2: 0 (0.00%)
mean elapsed_time: 544.065
OK all vehs arrived 
平均渋滞継続時間: 429.88秒
OK all vehicle abandonment were detected
301
99
===== Simlation Result Summary =====
avg_congestion_duration: 429.88 
arrival_time_by_vehID_dict:{'init_ShelterA_1_0': 217.0, 'init_ShelterA_1_1': 223.0, 'init_ShelterA_1_2': 229.0, 'init_ShelterA_1_3': 235.0, 'init_ShelterA_1_4': 241.0, 'init_ShelterA_1_5': 247.0, 'init_ShelterA_1_6': 252.0, 'init_ShelterA_1_7': 256.0, 'init_ShelterA_1_9': 285.0, 'init_ShelterA_1_10': 295.0, 'init_ShelterA_1_11': 301.0, 'init_ShelterA_1_12': 307.0, 'init_ShelterA_1_13': 313.0, 'init_ShelterA_1_14': 320.0, 'init_ShelterA_1_15': 327.0, 'init_ShelterA_1_17': 335.0, 'init_ShelterA_1_18': 344.0, 'init_ShelterA_1_19': 352.0, 'init_ShelterA_1_20': 358.0, 'init_ShelterA_1_21': 362.0, 'init_ShelterA_1_22': 367.0, 'init_ShelterA_1_23': 372.0, 'init_ShelterA_1_24': 381.0, 'init_ShelterA_1_25': 387.0, 'init_ShelterA_1_26': 392.0, 'init_ShelterA_2_8': 392.0, 'init_ShelterA_1_27': 398.0, 'init_ShelterA_1_28': 404.0, 'init_ShelterA_2_16': 409.0, 'init_ShelterA_1_29': 411.0, 'init_ShelterA_1_30': 418.0, 'init_ShelterA_1_31': 425.0, 'init_ShelterA_1_32': 434.0, 'init_ShelterA_1_33': 442.0, 'init_ShelterA_1_34': 452.0, 'init_ShelterA_1_35': 461.0, 'init_ShelterA_1_36': 470.0, 'init_ShelterA_1_37': 480.0, 'init_ShelterA_1_38': 489.0, 'init_ShelterA_1_39': 499.0, 'init_ShelterA_1_40': 509.0, 'init_ShelterA_1_41': 518.0, 'init_ShelterA_1_42': 528.0, 'init_ShelterA_1_43': 538.0, 'init_ShelterA_1_44': 547.0, 'init_ShelterA_1_45': 557.0, 'init_ShelterA_1_46': 567.0, 'init_ShelterA_1_47': 576.0, 'init_ShelterA_2_49': 579.0, 'init_ShelterA_1_48': 586.0, 'init_ShelterA_1_50': 595.0, 'init_ShelterA_1_51': 605.0, 'init_ShelterA_2_52': 607.0, 'init_ShelterA_1_53': 617.0, 'init_ShelterA_2_54': 619.0, 'init_ShelterA_1_55': 629.0, 'init_ShelterA_1_58': 630.0, 'init_ShelterA_1_59': 635.0, 'init_ShelterA_1_56': 639.0, 'init_ShelterA_1_60': 644.0, 'init_ShelterA_1_61': 647.0, 'init_ShelterA_1_57': 649.0, 'init_ShelterA_1_64': 659.0, 'init_ShelterA_1_62': 665.0, 'init_ShelterA_1_63': 667.0, 'init_ShelterA_1_66': 668.0, 'init_ShelterA_1_65': 670.0, 'init_ShelterA_1_67': 673.0, 'init_ShelterA_1_68': 676.0, 'init_ShelterA_1_70': 678.0, 'init_ShelterA_1_69': 679.0, 'init_ShelterA_1_71': 688.0, 'init_ShelterA_1_72': 697.0, 'init_ShelterA_2_73': 699.0, 'init_ShelterA_1_74': 709.0, 'init_ShelterA_1_75': 719.0, 'init_ShelterA_1_76': 729.0, 'init_ShelterA_2_77': 731.0, 'init_ShelterA_1_79': 736.0, 'init_ShelterA_1_81': 739.0, 'init_ShelterA_1_78': 741.0, 'init_ShelterA_1_82': 745.0, 'init_ShelterA_1_84': 747.0, 'init_ShelterA_1_80': 751.0, 'init_ShelterA_2_83': 753.0, 'init_ShelterA_1_86': 756.0, 'init_ShelterA_1_87': 758.0, 'init_ShelterA_1_85': 763.0, 'init_ShelterA_1_88': 773.0, 'init_ShelterA_1_89': 783.0, 'init_ShelterA_1_90': 789.0, 'init_ShelterA_1_91': 792.0, 'init_ShelterA_1_93': 802.0, 'init_ShelterA_1_92': 809.0, 'init_ShelterA_1_94': 812.0, 'init_ShelterA_1_95': 821.0, 'init_ShelterA_1_96': 831.0, 'init_ShelterA_1_97': 840.0, 'init_ShelterA_1_98': 849.0, 'init_ShelterA_2_99': 851.0, 'init_ShelterA_1_101': 861.0, 'init_ShelterA_2_109': 863.0, 'init_ShelterA_1_110': 873.0, 'init_ShelterA_1_100': 876.0, 'init_ShelterA_1_102': 879.0, 'init_ShelterA_1_103': 882.0, 'init_ShelterA_1_111': 883.0, 'init_ShelterA_1_104': 885.0, 'init_ShelterA_1_105': 888.0, 'init_ShelterA_1_106': 891.0, 'init_ShelterA_1_107': 893.0, 'init_ShelterA_1_112': 893.0, 'init_ShelterA_1_108': 902.0, 'init_ShelterA_1_113': 902.0, 'init_ShelterA_2_114': 905.0, 'init_ShelterA_1_116': 915.0, 'init_ShelterA_1_115': 916.0, 'init_ShelterA_1_117': 924.0, 'init_ShelterA_1_118': 932.0, 'init_ShelterA_1_120': 934.0, 'init_ShelterA_1_119': 935.0, 'init_ShelterA_1_121': 944.0, 'init_ShelterA_1_122': 945.0, 'init_ShelterA_2_123': 946.0, 'init_ShelterA_2_124': 948.0, 'init_ShelterA_1_127': 958.0, 'init_ShelterA_1_128': 968.0, 'init_ShelterA_2_130': 970.0, 'init_ShelterA_1_131': 979.0, 'init_ShelterA_1_134': 983.0, 'init_ShelterA_1_139': 988.0, 'init_ShelterA_1_125': 991.0, 'init_ShelterA_1_126': 1000.0, 'init_ShelterA_1_129': 1002.0, 'init_ShelterA_1_143': 1004.0, 'init_ShelterA_2_144': 1006.0, 'init_ShelterA_1_150': 1023.0, 'init_ShelterA_1_132': 1026.0, 'init_ShelterA_1_133': 1028.0, 'init_ShelterA_1_151': 1028.0, 'init_ShelterA_1_135': 1030.0, 'init_ShelterA_2_153': 1031.0, 'init_ShelterA_1_136': 1034.0, 'init_ShelterA_1_137': 1050.0, 'init_ShelterA_1_138': 1052.0, 'init_ShelterA_1_140': 1054.0, 'init_ShelterA_1_141': 1057.0, 'init_ShelterA_2_161': 1087.0, 'init_ShelterA_2_163': 1095.0, 'init_ShelterA_1_142': 1116.0, 'init_ShelterA_1_145': 1118.0, 'init_ShelterA_1_166': 1118.0, 'init_ShelterA_1_146': 1120.0, 'init_ShelterA_1_147': 1123.0, 'init_ShelterA_1_171': 1124.0, 'init_ShelterA_1_148': 1126.0, 'init_ShelterA_1_172': 1128.0, 'init_ShelterA_1_149': 1129.0, 'init_ShelterA_1_152': 1132.0, 'init_ShelterA_1_154': 1135.0, 'init_ShelterA_1_155': 1138.0, 'init_ShelterA_1_156': 1141.0, 'init_ShelterA_1_157': 1144.0, 'init_ShelterA_1_158': 1147.0, 'init_ShelterA_1_159': 1193.0, 'init_ShelterA_1_160': 1195.0, 'init_ShelterA_1_162': 1197.0, 'init_ShelterA_1_164': 1200.0, 'init_ShelterA_1_183': 1200.0, 'init_ShelterA_1_165': 1202.0, 'init_ShelterA_1_185': 1204.0, 'init_ShelterA_1_167': 1206.0, 'init_ShelterA_2_186': 1206.0, 'init_ShelterA_1_168': 1208.0, 'init_ShelterA_1_169': 1219.0, 'init_ShelterA_1_193': 1220.0, 'init_ShelterA_1_170': 1221.0, 'init_ShelterA_1_173': 1223.0, 'init_ShelterA_1_174': 1226.0, 'init_ShelterA_1_175': 1228.0, 'init_ShelterA_1_176': 1272.0, 'init_ShelterA_1_194': 1280.0, 'init_ShelterA_1_177': 1285.0, 'init_ShelterA_1_196': 1285.0, 'init_ShelterA_1_178': 1287.0, 'init_ShelterA_1_179': 1289.0, 'init_ShelterA_1_180': 1292.0, 'init_ShelterA_1_181': 1294.0, 'init_ShelterA_1_182': 1297.0, 'init_ShelterA_1_184': 1299.0, 'init_ShelterA_1_187': 1302.0, 'init_ShelterA_1_188': 1305.0, 'init_ShelterA_1_207': 1306.0, 'init_ShelterA_2_208': 1308.0, 'init_ShelterA_1_189': 1309.0, 'init_ShelterA_1_190': 1311.0, 'init_ShelterA_1_209': 1313.0, 'init_ShelterA_1_191': 1314.0, 'init_ShelterA_1_192': 1317.0, 'init_ShelterA_1_195': 1349.0, 'init_ShelterA_1_211': 1363.0, 'init_ShelterA_1_197': 1366.0, 'init_ShelterA_1_198': 1367.0, 'init_ShelterA_1_212': 1369.0, 'init_ShelterA_1_199': 1371.0, 'init_ShelterA_1_200': 1382.0, 'init_ShelterA_1_219': 1382.0, 'init_ShelterA_1_201': 1384.0, 'init_ShelterA_1_202': 1386.0, 'init_ShelterA_1_203': 1388.0, 'init_ShelterA_1_204': 1391.0, 'init_ShelterA_1_205': 1394.0, 'init_ShelterA_1_206': 1397.0, 'init_ShelterA_1_252': 1401.0, 'init_ShelterA_1_210': 1410.0, 'init_ShelterA_1_257': 1451.0, 'init_ShelterA_1_213': 1452.0, 'init_ShelterA_1_214': 1453.0, 'init_ShelterA_1_215': 1455.0, 'init_ShelterA_1_216': 1457.0, 'init_ShelterA_1_260': 1466.0, 'init_ShelterA_1_217': 1467.0, 'init_ShelterA_1_218': 1469.0, 'init_ShelterA_1_248': 1471.0, 'init_ShelterA_1_262': 1472.0, 'init_ShelterA_1_249': 1476.0, 'init_ShelterA_1_263': 1477.0, 'init_ShelterA_1_264': 1483.0, 'init_ShelterA_1_267': 1487.0, 'init_ShelterA_1_250': 1488.0, 'init_ShelterA_1_251': 1490.0, 'init_ShelterA_1_253': 1492.0, 'init_ShelterA_1_254': 1494.0, 'init_ShelterA_1_255': 1497.0, 'init_ShelterA_1_256': 1535.0, 'init_ShelterA_1_258': 1550.0, 'init_ShelterA_1_259': 1560.0, 'init_ShelterA_1_261': 1562.0, 'newveh_ShelterA_1_246_27': 1577.0, 'newveh_ShelterA_2_220_0': 1581.0, 'newveh_ShelterA_1_240_26': 1584.0, 'newveh_ShelterA_2_231_8': 1587.0, 'newveh_ShelterA_2_229_7': 1596.0, 'newveh_ShelterA_2_228_6': 1601.0, 'newveh_ShelterA_2_226_5': 1609.0, 'newveh_ShelterA_2_225_4': 1614.0, 'newveh_ShelterA_2_224_3': 1618.0, 'newveh_ShelterA_1_238_25': 1633.0, 'newveh_ShelterA_1_230_24': 1639.0, 'newveh_ShelterA_1_227_23': 1645.0, 'newveh_ShelterA_1_222_22': 1651.0, 'newveh_ShelterA_2_223_2': 1654.0, 'init_ShelterA_1_268': 1656.0, 'newveh_ShelterA_2_221_1': 1659.0, 'init_ShelterA_1_269': 1662.0, 'init_ShelterA_1_270': 1669.0, 'newveh_ShelterA_2_232_9': 1670.0, 'init_ShelterA_1_271': 1676.0, 'init_ShelterA_1_273': 1683.0, 'init_ShelterA_2_274': 1685.0, 'init_ShelterA_1_276': 1695.0, 'newveh_ShelterA_2_233_10': 1695.0, 'newveh_ShelterA_2_234_11': 1702.0, 'init_ShelterA_1_277': 1703.0, 'newveh_ShelterA_2_235_12': 1708.0, 'init_ShelterA_1_278': 1710.0, 'newveh_ShelterA_2_236_13': 1713.0, 'init_ShelterA_1_279': 1716.0, 'newveh_ShelterA_2_237_14': 1719.0, 'init_ShelterA_1_280': 1721.0, 'newveh_ShelterA_2_239_15': 1725.0, 'init_ShelterA_1_282': 1727.0, 'init_ShelterA_1_285': 1732.0, 'newveh_ShelterA_2_241_16': 1732.0, 'newveh_ShelterA_1_266_29': 1737.0, 'newveh_ShelterA_2_242_17': 1740.0, 'init_ShelterA_1_290': 1744.0, 'newveh_ShelterA_2_243_18': 1748.0, 'init_ShelterA_1_291': 1750.0, 'init_ShelterA_1_292': 1757.0, 'newveh_ShelterA_2_244_19': 1757.0, 'init_ShelterA_1_294': 1765.0, 'newveh_ShelterA_2_245_20': 1765.0, 'init_ShelterA_1_295': 1773.0, 'newveh_ShelterA_2_247_21': 1773.0, 'newveh_ShelterA_2_275_68': 1777.0, 'init_ShelterA_1_272': 1779.0, 'init_ShelterA_1_296': 1782.0, 'newveh_ShelterA_2_323_71': 1787.0, 'init_ShelterA_1_297': 1792.0, 'init_ShelterA_1_298': 1801.0, 'init_ShelterA_1_302': 1810.0, 'init_ShelterA_1_305': 1819.0, 'init_ShelterA_1_307': 1829.0, 'newveh_ShelterA_2_265_28': 1833.0, 'init_ShelterA_1_306': 1835.0, 'init_ShelterA_1_309': 1838.0, 'init_ShelterA_1_315': 1848.0, 'init_ShelterA_1_316': 1857.0, 'init_ShelterA_1_321': 1867.0, 'init_ShelterA_1_322': 1877.0, 'init_ShelterA_1_325': 1885.0, 'init_ShelterA_1_327': 1890.0, 'init_ShelterA_1_328': 1895.0, 'newveh_ShelterA_2_349_77': 1898.0, 'init_ShelterA_1_346': 1900.0, 'newveh_ShelterA_2_345_76': 1905.0, 'init_ShelterA_1_347': 1909.0, 'newveh_ShelterA_2_329_75': 1911.0, 'init_ShelterA_1_317': 1914.0, 'newveh_ShelterA_1_300_38': 1915.0, 'init_ShelterA_1_324': 1916.0, 'init_ShelterA_2_353': 1917.0, 'init_ShelterA_1_326': 1918.0, 'newveh_ShelterA_1_304_39': 1923.0, 'newveh_ShelterA_2_281_30': 1938.0, 'newveh_ShelterA_2_286_32': 1954.0, 'newveh_ShelterA_2_283_31': 1961.0, 'newveh_ShelterA_2_289_35': 1967.0, 'newveh_ShelterA_2_288_34': 1973.0, 'newveh_ShelterA_2_287_33': 1978.0, 'newveh_ShelterA_2_293_37': 1986.0, 'newveh_ShelterA_2_284_36': 1991.0, 'init_ShelterA_1_367': 1994.0, 'newveh_ShelterA_2_365_82': 1996.0, 'init_ShelterA_1_350': 1998.0, 'init_ShelterA_1_351': 2000.0, 'init_ShelterA_1_352': 2011.0, 'init_ShelterA_1_354': 2013.0, 'init_ShelterA_1_355': 2015.0, 'init_ShelterA_1_356': 2017.0, 'init_ShelterA_1_357': 2019.0, 'newveh_ShelterA_1_320_51': 2020.0, 'init_ShelterA_1_358': 2022.0, 'init_ShelterA_1_359': 2027.0, 'init_ShelterA_1_362': 2033.0, 'init_ShelterA_1_363': 2036.0, 'init_ShelterA_1_364': 2043.0, 'newveh_ShelterA_2_371_85': 2061.0, 'init_ShelterA_2_374': 2068.0, 'init_ShelterA_2_375': 2070.0, 'init_ShelterA_1_376': 2094.0, 'newveh_ShelterA_2_311_42': 2094.0, 'init_ShelterA_2_381': 2097.0, 'init_ShelterA_2_382': 2099.0, 'init_ShelterA_1_387': 2110.0, 'init_ShelterA_1_366': 2113.0, 'init_ShelterA_1_388': 2115.0, 'newveh_ShelterA_1_339_53': 2121.0, 'newveh_ShelterA_2_308_41': 2131.0, 'newveh_ShelterA_2_301_40': 2138.0, 'newveh_ShelterA_2_313_44': 2144.0, 'newveh_ShelterA_2_312_43': 2150.0, 'newveh_ShelterA_2_314_45': 2157.0, 'newveh_ShelterA_2_299_46': 2164.0, 'newveh_ShelterA_2_318_49': 2172.0, 'newveh_ShelterA_2_319_50': 2180.0, 'newveh_ShelterA_2_310_48': 2189.0, 'init_ShelterA_1_394': 2194.0, 'newveh_ShelterA_2_303_47': 2199.0, 'init_ShelterA_1_396': 2201.0, 'init_ShelterA_1_372': 2202.0, 'init_ShelterA_1_373': 2204.0, 'init_ShelterA_1_397': 2208.0, 'newveh_ShelterA_1_348_67': 2212.0, 'newveh_ShelterA_1_361_69': 2217.0, 'newveh_ShelterA_2_392_86': 2227.0, 'init_ShelterA_1_377': 2229.0, 'init_ShelterA_1_378': 2232.0, 'init_ShelterA_1_379': 2234.0, 'init_ShelterA_1_380': 2236.0, 'init_ShelterA_1_383': 2238.0, 'init_ShelterA_1_385': 2240.0, 'init_ShelterA_1_386': 2242.0, 'init_ShelterA_1_390': 2244.0, 'init_ShelterA_1_391': 2247.0, 'newveh_ShelterA_1_360_70': 2277.0, 'newveh_ShelterA_2_334_52': 2288.0, 'newveh_ShelterA_2_331_54': 2296.0, 'newveh_ShelterA_2_332_55': 2302.0, 'newveh_ShelterA_2_337_56': 2307.0, 'newveh_ShelterA_2_330_57': 2312.0, 'newveh_ShelterA_2_344_66': 2319.0, 'newveh_ShelterA_2_343_65': 2325.0, 'newveh_ShelterA_2_342_64': 2332.0, 'newveh_ShelterA_2_341_63': 2340.0, 'newveh_ShelterA_2_340_62': 2348.0, 'newveh_ShelterA_2_338_61': 2352.0, 'newveh_ShelterA_2_336_60': 2357.0, 'newveh_ShelterA_2_335_59': 2370.0, 'newveh_ShelterA_2_333_58': 2382.0, 'newveh_ShelterA_2_368_72': 2387.0, 'newveh_ShelterA_2_399_84': 2404.0, 'newveh_ShelterA_2_398_83': 2410.0, 'newveh_ShelterA_2_395_81': 2418.0, 'newveh_ShelterA_2_393_80': 2422.0, 'newveh_ShelterA_2_370_74': 2435.0, 'newveh_ShelterA_2_369_73': 2444.0, 'newveh_ShelterA_2_384_78': 2449.0, 'newveh_ShelterA_2_389_79': 2453.0}
vehicle_abandant_time_by_pedestrianID_dict:{}
walking_distance_by_pedestrianID_dict:{}
route_change_time_by_vehID_dict:{'init_ShelterA_2_52': 430.0, 'init_ShelterA_2_54': 430.0, 'init_ShelterA_1_63': 460.0, 'init_ShelterA_1_67': 460.0, 'init_ShelterA_1_69': 460.0, 'init_ShelterA_1_61': 470.0, 'init_ShelterA_1_62': 470.0, 'init_ShelterA_1_65': 470.0, 'init_ShelterA_1_58': 480.0, 'init_ShelterA_1_59': 480.0, 'init_ShelterA_1_60': 480.0, 'init_ShelterA_2_73': 500.0, 'init_ShelterA_1_68': 510.0, 'init_ShelterA_2_77': 510.0, 'init_ShelterA_2_83': 510.0, 'init_ShelterA_1_79': 520.0, 'init_ShelterA_1_81': 520.0, 'init_ShelterA_1_82': 550.0, 'init_ShelterA_1_84': 550.0, 'init_ShelterA_1_87': 550.0, 'init_ShelterA_1_90': 590.0, 'init_ShelterA_1_86': 600.0, 'init_ShelterA_1_92': 600.0, 'init_ShelterA_2_99': 600.0, 'init_ShelterA_1_102': 640.0, 'init_ShelterA_1_103': 640.0, 'init_ShelterA_1_104': 640.0, 'init_ShelterA_1_100': 650.0, 'init_ShelterA_1_105': 650.0, 'init_ShelterA_1_106': 680.0, 'init_ShelterA_1_107': 680.0, 'init_ShelterA_1_108': 680.0, 'init_ShelterA_2_109': 690.0, 'init_ShelterA_2_114': 690.0, 'init_ShelterA_1_119': 700.0, 'init_ShelterA_2_123': 700.0, 'init_ShelterA_2_124': 700.0, 'init_ShelterA_1_118': 710.0, 'init_ShelterA_1_115': 730.0, 'init_ShelterA_1_125': 750.0, 'init_ShelterA_1_126': 750.0, 'init_ShelterA_1_122': 760.0, 'init_ShelterA_1_129': 760.0, 'init_ShelterA_2_130': 760.0, 'init_ShelterA_1_133': 820.0, 'init_ShelterA_1_141': 830.0, 'init_ShelterA_1_138': 840.0, 'init_ShelterA_1_142': 840.0, 'init_ShelterA_2_153': 840.0, 'init_ShelterA_1_135': 850.0, 'init_ShelterA_1_136': 850.0, 'init_ShelterA_1_137': 850.0, 'init_ShelterA_1_140': 850.0, 'init_ShelterA_1_145': 850.0, 'init_ShelterA_2_144': 850.0, 'init_ShelterA_1_132': 860.0, 'init_ShelterA_1_146': 860.0, 'init_ShelterA_1_147': 860.0, 'init_ShelterA_1_149': 860.0, 'init_ShelterA_1_152': 860.0, 'init_ShelterA_1_154': 860.0, 'init_ShelterA_1_155': 860.0, 'init_ShelterA_2_163': 900.0, 'init_ShelterA_1_148': 910.0, 'init_ShelterA_1_158': 920.0, 'init_ShelterA_2_161': 920.0, 'init_ShelterA_1_156': 930.0, 'init_ShelterA_1_157': 930.0, 'init_ShelterA_1_159': 930.0, 'init_ShelterA_1_160': 930.0, 'init_ShelterA_1_162': 930.0, 'init_ShelterA_1_164': 930.0, 'init_ShelterA_1_165': 930.0, 'init_ShelterA_1_167': 930.0, 'init_ShelterA_1_168': 940.0, 'init_ShelterA_1_170': 940.0, 'init_ShelterA_1_175': 950.0, 'init_ShelterA_1_220': 980.0, 'init_ShelterA_1_221': 980.0, 'init_ShelterA_1_223': 980.0, 'init_ShelterA_1_224': 980.0, 'init_ShelterA_1_225': 980.0, 'init_ShelterA_1_226': 980.0, 'init_ShelterA_1_228': 980.0, 'init_ShelterA_1_229': 980.0, 'init_ShelterA_1_231': 980.0, 'init_ShelterA_1_232': 980.0, 'init_ShelterA_1_233': 980.0, 'init_ShelterA_1_234': 980.0, 'init_ShelterA_1_235': 980.0, 'init_ShelterA_1_236': 980.0, 'init_ShelterA_1_237': 980.0, 'init_ShelterA_1_239': 980.0, 'init_ShelterA_1_241': 980.0, 'init_ShelterA_1_242': 980.0, 'init_ShelterA_1_243': 980.0, 'init_ShelterA_1_244': 980.0, 'init_ShelterA_1_245': 980.0, 'init_ShelterA_1_247': 980.0, 'init_ShelterA_2_186': 980.0, 'init_ShelterA_2_222': 980.0, 'init_ShelterA_2_227': 980.0, 'init_ShelterA_2_230': 980.0, 'init_ShelterA_2_238': 980.0, 'init_ShelterA_2_240': 980.0, 'init_ShelterA_2_246': 980.0, 'init_ShelterA_1_179': 990.0, 'init_ShelterA_1_169': 1000.0, 'init_ShelterA_1_174': 1010.0, 'init_ShelterA_1_173': 1020.0, 'init_ShelterA_1_176': 1020.0, 'init_ShelterA_1_177': 1020.0, 'init_ShelterA_1_180': 1020.0, 'init_ShelterA_1_181': 1020.0, 'init_ShelterA_1_184': 1020.0, 'init_ShelterA_1_182': 1030.0, 'init_ShelterA_1_187': 1030.0, 'init_ShelterA_1_188': 1030.0, 'init_ShelterA_1_189': 1030.0, 'init_ShelterA_1_190': 1030.0, 'init_ShelterA_1_265': 1050.0, 'init_ShelterA_2_266': 1050.0, 'init_ShelterA_1_178': 1090.0, 'init_ShelterA_2_208': 1090.0, 'init_ShelterA_1_191': 1100.0, 'init_ShelterA_1_192': 1100.0, 'init_ShelterA_1_195': 1100.0, 'init_ShelterA_1_201': 1110.0, 'init_ShelterA_1_250': 1170.0, 'init_ShelterA_1_251': 1170.0, 'init_ShelterA_1_200': 1180.0, 'init_ShelterA_1_204': 1180.0, 'init_ShelterA_1_205': 1180.0, 'init_ShelterA_1_255': 1180.0, 'init_ShelterA_1_198': 1190.0, 'init_ShelterA_1_203': 1190.0, 'init_ShelterA_1_206': 1190.0, 'init_ShelterA_1_254': 1190.0, 'init_ShelterA_1_199': 1200.0, 'init_ShelterA_1_202': 1200.0, 'init_ShelterA_1_214': 1200.0, 'init_ShelterA_1_216': 1200.0, 'init_ShelterA_1_217': 1200.0, 'init_ShelterA_1_248': 1200.0, 'init_ShelterA_1_249': 1200.0, 'init_ShelterA_1_197': 1210.0, 'init_ShelterA_1_215': 1210.0, 'init_ShelterA_1_218': 1210.0, 'init_ShelterA_1_213': 1220.0, 'init_ShelterA_1_259': 1220.0, 'init_ShelterA_1_281': 1220.0, 'init_ShelterA_1_210': 1230.0, 'init_ShelterA_1_283': 1230.0, 'init_ShelterA_1_286': 1230.0, 'init_ShelterA_1_287': 1230.0, 'init_ShelterA_1_288': 1230.0, 'init_ShelterA_1_289': 1230.0, 'init_ShelterA_1_284': 1240.0, 'init_ShelterA_1_293': 1240.0, 'init_ShelterA_2_300': 1260.0, 'init_ShelterA_2_304': 1270.0, 'init_ShelterA_1_256': 1290.0, 'init_ShelterA_1_261': 1290.0, 'init_ShelterA_1_253': 1300.0, 'init_ShelterA_1_258': 1300.0, 'init_ShelterA_1_301': 1300.0, 'init_ShelterA_1_308': 1300.0, 'init_ShelterA_1_311': 1300.0, 'init_ShelterA_1_312': 1300.0, 'init_ShelterA_1_313': 1300.0, 'init_ShelterA_1_314': 1300.0, 'init_ShelterA_1_299': 1310.0, 'init_ShelterA_1_303': 1310.0, 'init_ShelterA_1_310': 1310.0, 'init_ShelterA_1_318': 1310.0, 'init_ShelterA_1_319': 1320.0, 'init_ShelterA_2_320': 1320.0, 'init_ShelterA_1_334': 1380.0, 'init_ShelterA_2_339': 1380.0, 'init_ShelterA_1_331': 1390.0, 'init_ShelterA_1_332': 1390.0, 'init_ShelterA_1_337': 1390.0, 'init_ShelterA_1_330': 1410.0, 'init_ShelterA_1_333': 1410.0, 'init_ShelterA_1_335': 1410.0, 'init_ShelterA_1_336': 1410.0, 'init_ShelterA_1_338': 1410.0, 'init_ShelterA_1_340': 1410.0, 'init_ShelterA_1_341': 1410.0, 'init_ShelterA_1_342': 1410.0, 'init_ShelterA_1_343': 1410.0, 'init_ShelterA_1_344': 1410.0, 'init_ShelterA_2_274': 1420.0, 'init_ShelterA_1_272': 1430.0, 'init_ShelterA_2_348': 1430.0, 'init_ShelterA_1_275': 1440.0, 'init_ShelterA_2_361': 1480.0, 'init_ShelterA_2_360': 1500.0, 'init_ShelterA_1_323': 1530.0, 'init_ShelterA_1_368': 1560.0, 'init_ShelterA_1_369': 1560.0, 'init_ShelterA_1_370': 1560.0, 'init_ShelterA_1_326': 1610.0, 'init_ShelterA_1_329': 1610.0, 'init_ShelterA_1_345': 1610.0, 'init_ShelterA_1_349': 1610.0, 'init_ShelterA_1_317': 1620.0, 'init_ShelterA_1_324': 1620.0, 'init_ShelterA_2_382': 1620.0, 'init_ShelterA_1_306': 1630.0, 'init_ShelterA_1_352': 1640.0, 'init_ShelterA_1_358': 1650.0, 'init_ShelterA_1_364': 1650.0, 'init_ShelterA_1_357': 1660.0, 'init_ShelterA_1_363': 1660.0, 'init_ShelterA_1_384': 1660.0, 'init_ShelterA_1_389': 1660.0, 'init_ShelterA_1_393': 1660.0, 'init_ShelterA_1_395': 1660.0, 'init_ShelterA_1_359': 1670.0, 'init_ShelterA_1_362': 1670.0, 'init_ShelterA_1_350': 1680.0, 'init_ShelterA_1_351': 1680.0, 'init_ShelterA_1_354': 1680.0, 'init_ShelterA_2_353': 1680.0, 'init_ShelterA_1_355': 1690.0, 'init_ShelterA_1_356': 1690.0, 'init_ShelterA_1_365': 1700.0, 'init_ShelterA_1_398': 1710.0, 'init_ShelterA_1_399': 1710.0, 'init_ShelterA_1_366': 1790.0, 'init_ShelterA_1_371': 1790.0, 'init_ShelterA_2_374': 1790.0, 'init_ShelterA_2_375': 1790.0, 'init_ShelterA_1_386': 1820.0, 'init_ShelterA_1_385': 1830.0, 'init_ShelterA_1_377': 1850.0, 'init_ShelterA_1_379': 1850.0, 'init_ShelterA_2_381': 1860.0, 'init_ShelterA_1_378': 1870.0, 'init_ShelterA_1_392': 1870.0, 'init_ShelterA_1_373': 1910.0, 'init_ShelterA_1_372': 1920.0, 'init_ShelterA_1_390': 2000.0, 'init_ShelterA_1_391': 2000.0, 'init_ShelterA_1_383': 2010.0, 'init_ShelterA_1_380': 2020.0}
pedestrian_count:0
route_changed_vehicle_count:247
route_change_event_count:247
rate_vehicle_abandonment:0.00%
wrong_way_driving_count:0
vehicle_abandonment_count:0
normalcy_bias_route_change_count:150
majority_bias_route_change_count:97
lane_changed_vehicle_count:0
info_obtained_lanechange_count:0
elapsed_time_lanechange_count:0
majority_bias_lanechange_count:0

=== Job Result ===
end=2026-07-13T01:06:28+0900
elapsed_seconds=447
exit_code=0
status=SUCCESS
