=== Job Info ===
job_name=va_s6_e1.0_v1.0_r43
host=schubert
pid=120988
scenario=6
early_rate=1.0
v2v_rate=1.0
run_id=43
config=/home/katagi/vehicle-assistant-system/scenarios/JIP/configs/config_scenario_6.toml
output_dir=/home/katagi/vehicle-assistant-system/schubert_logs/va_s6_e1.0_v1.0_r43
start=2026-07-13T02:00:40+0900
python_version=Python 3.12.3
sumo_version=Eclipse SUMO sumo Version v1_23_1+0435-630512a

=== Command ===
cd /home/katagi/vehicle-assistant-system/schubert_logs/va_s6_e1.0_v1.0_r43
PYTHONPATH=/home/katagi/vehicle-assistant-system:/home/katagi/tmp/sumo/tools:/home/katagi/local/sumo/tools:/home/katagi/tmp/sumo/tools:/home/katagi/local/sumo/tools:/home/katagi/tmp/sumo/tools:/home/katagi/local/sumo/tools: python3 -W ignore::UserWarning -m scenarios.JIP.1-1-4.simulation.runner_simulator --nogui /home/katagi/vehicle-assistant-system/scenarios/JIP/configs/config_scenario_6.toml 1.0 1.0
simulation_pid=121008
Step #0.00 (0ms ?*RT. ?UPS, TraCI: 335ms, vehicles TOT 1 ACT 1 BUF 0)                     Step #100.00 (0ms ?*RT. ?UPS, TraCI: 18ms, vehicles TOT 26 ACT 26 BUF 0)                  Step #200.00 (1ms ~= 1000.00*RT, ~51000.00UPS, TraCI: 36ms, vehicles TOT 51 ACT 51 BUF 0) Step #300.00 (0ms ?*RT. ?UPS, TraCI: 55ms, vehicles TOT 77 ACT 77 BUF 0)                  Step #400.00 (1ms ~= 1000.00*RT, ~104000.00UPS, TraCI: 70ms, vehicles TOT 104 ACT 104 BUF Step #500.00 (1ms ~= 1000.00*RT, ~131000.00UPS, TraCI: 1486ms, vehicles TOT 133 ACT 131 BUStep #600.00 (0ms ?*RT. ?UPS, TraCI: 957ms, vehicles TOT 160 ACT 158 BUF 0)               Step #700.00 (1ms ~= 1000.00*RT, ~186000.00UPS, TraCI: 192ms, vehicles TOT 188 ACT 186 BUFStep #800.00 (0ms ?*RT. ?UPS, TraCI: 101ms, vehicles TOT 211 ACT 209 BUF 6)               Step #900.00 (1ms ~= 1000.00*RT, ~231000.00UPS, TraCI: 1105ms, vehicles TOT 233 ACT 231 BUStep #1000.00 (0ms ?*RT. ?UPS, TraCI: 1435ms, vehicles TOT 256 ACT 227 BUF 47)            Step #1100.00 (0ms ?*RT. ?UPS, TraCI: 1324ms, vehicles TOT 297 ACT 264 BUF 40)            Step #1200.00 (0ms ?*RT. ?UPS, TraCI: 2175ms, vehicles TOT 333 ACT 277 BUF 59)            Step #1300.00 (0ms ?*RT. ?UPS, TraCI: 707ms, vehicles TOT 361 ACT 295 BUF 73)             Step #1400.00 (0ms ?*RT. ?UPS, TraCI: 1668ms, vehicles TOT 397 ACT 320 BUF 80)            Step #1500.00 (1ms ~= 1000.00*RT, ~338000.00UPS, TraCI: 1090ms, vehicles TOT 431 ACT 338 BStep #1600.00 (0ms ?*RT. ?UPS, TraCI: 2284ms, vehicles TOT 459 ACT 359 BUF 41)            Step #1700.00 (1ms ~= 1000.00*RT, ~382000.00UPS, TraCI: 780ms, vehicles TOT 501 ACT 382 BUStep #1800.00 (1ms ~= 1000.00*RT, ~400000.00UPS, TraCI: 982ms, vehicles TOT 523 ACT 400 BUStep #1900.00 (1ms ~= 1000.00*RT, ~400000.00UPS, TraCI: 437ms, vehicles TOT 523 ACT 400 BUStep #2000.00 (0ms ?*RT. ?UPS, TraCI: 414ms, vehicles TOT 523 ACT 400 BUF 0)              Step #2100.00 (1ms ~= 1000.00*RT, ~400000.00UPS, TraCI: 130ms, vehicles TOT 523 ACT 400 BUStep #2200.00 (0ms ?*RT. ?UPS, TraCI: 116ms, vehicles TOT 523 ACT 400 BUF 0)              Step #2300.00 (0ms ?*RT. ?UPS, TraCI: 105ms, vehicles TOT 523 ACT 400 BUF 0)              Step #2400.00 (0ms ?*RT. ?UPS, TraCI: 102ms, vehicles TOT 523 ACT 400 BUF 0)              Step #2500.00 (1ms ~= 1000.00*RT, ~400000.00UPS, TraCI: 93ms, vehicles TOT 523 ACT 400 BUFStep #2600.00 (0ms ?*RT. ?UPS, TraCI: 79ms, vehicles TOT 523 ACT 400 BUF 0)               Step #2700.00 (1ms ~= 1000.00*RT, ~400000.00UPS, TraCI: 78ms, vehicles TOT 523 ACT 400 BUFStep #2800.00 (0ms ?*RT. ?UPS, TraCI: 78ms, vehicles TOT 523 ACT 400 BUF 0)               Step #2900.00 (0ms ?*RT. ?UPS, TraCI: 79ms, vehicles TOT 523 ACT 400 BUF 0)               Step #3000.00 (1ms ~= 1000.00*RT, ~400000.00UPS, TraCI: 78ms, vehicles TOT 523 ACT 400 BUF
 Retrying in 1 seconds
出現数: {'A1': 351, 'A2': 49}
割合:
  Total: 400
  A1: 351 (87.75%)
  A2: 49 (12.25%)
  B1: 0 (0.00%)
  B2: 0 (0.00%)
mean elapsed_time: 581.6875
OK all vehs arrived 
平均渋滞継続時間: 468.18秒
OK all vehicle abandonment were detected
260
140
===== Simlation Result Summary =====
avg_congestion_duration: 468.18 
arrival_time_by_vehID_dict:{'init_ShelterA_1_0': 222.0, 'init_ShelterA_1_1': 229.0, 'init_ShelterA_1_2': 234.0, 'init_ShelterA_1_3': 240.0, 'init_ShelterA_1_4': 247.0, 'init_ShelterA_1_5': 252.0, 'init_ShelterA_1_6': 256.0, 'init_ShelterA_1_7': 290.0, 'init_ShelterA_1_8': 297.0, 'init_ShelterA_1_9': 303.0, 'init_ShelterA_1_10': 308.0, 'init_ShelterA_1_11': 314.0, 'init_ShelterA_1_12': 320.0, 'init_ShelterA_1_13': 327.0, 'init_ShelterA_1_15': 334.0, 'init_ShelterA_1_16': 342.0, 'init_ShelterA_1_17': 351.0, 'init_ShelterA_1_18': 359.0, 'init_ShelterA_1_20': 364.0, 'init_ShelterA_1_22': 370.0, 'init_ShelterA_1_23': 375.0, 'init_ShelterA_1_25': 382.0, 'init_ShelterA_1_26': 389.0, 'init_ShelterA_1_27': 397.0, 'init_ShelterA_2_14': 404.0, 'init_ShelterA_1_28': 406.0, 'init_ShelterA_2_19': 411.0, 'init_ShelterA_1_29': 415.0, 'init_ShelterA_2_21': 420.0, 'init_ShelterA_1_30': 425.0, 'init_ShelterA_1_31': 434.0, 'init_ShelterA_1_32': 444.0, 'init_ShelterA_1_33': 454.0, 'init_ShelterA_1_34': 463.0, 'init_ShelterA_1_35': 473.0, 'init_ShelterA_2_24': 477.0, 'init_ShelterA_1_36': 483.0, 'init_ShelterA_1_37': 493.0, 'init_ShelterA_1_38': 502.0, 'init_ShelterA_1_39': 512.0, 'init_ShelterA_1_40': 522.0, 'init_ShelterA_1_41': 531.0, 'init_ShelterA_1_42': 541.0, 'init_ShelterA_1_43': 551.0, 'init_ShelterA_1_44': 560.0, 'init_ShelterA_1_45': 570.0, 'init_ShelterA_2_47': 575.0, 'init_ShelterA_1_49': 580.0, 'init_ShelterA_2_48': 583.0, 'init_ShelterA_2_51': 588.0, 'init_ShelterA_1_50': 589.0, 'init_ShelterA_1_56': 590.0, 'init_ShelterA_1_52': 599.0, 'newveh_ShelterA_2_58_0': 606.0, 'init_ShelterA_1_53': 608.0, 'init_ShelterA_1_54': 618.0, 'init_ShelterA_1_55': 627.0, 'init_ShelterA_1_57': 636.0, 'newveh_ShelterA_1_46_1': 647.0, 'init_ShelterA_1_59': 649.0, 'init_ShelterA_2_60': 649.0, 'init_ShelterA_1_61': 651.0, 'init_ShelterA_2_70': 651.0, 'init_ShelterA_1_62': 654.0, 'init_ShelterA_2_76': 654.0, 'init_ShelterA_1_63': 657.0, 'init_ShelterA_2_78': 657.0, 'init_ShelterA_1_64': 670.0, 'init_ShelterA_1_65': 672.0, 'init_ShelterA_1_66': 675.0, 'init_ShelterA_1_67': 678.0, 'init_ShelterA_1_68': 681.0, 'init_ShelterA_1_69': 684.0, 'init_ShelterA_1_71': 687.0, 'init_ShelterA_1_72': 690.0, 'init_ShelterA_1_73': 698.0, 'init_ShelterA_1_74': 700.0, 'init_ShelterA_1_75': 703.0, 'init_ShelterA_1_77': 721.0, 'init_ShelterA_1_79': 727.0, 'init_ShelterA_2_94': 728.0, 'init_ShelterA_2_102': 742.0, 'init_ShelterA_2_106': 749.0, 'init_ShelterA_2_108': 751.0, 'init_ShelterA_1_80': 760.0, 'init_ShelterA_1_81': 762.0, 'init_ShelterA_1_82': 764.0, 'init_ShelterA_1_83': 767.0, 'init_ShelterA_1_84': 770.0, 'init_ShelterA_1_85': 773.0, 'init_ShelterA_1_86': 776.0, 'init_ShelterA_1_87': 779.0, 'init_ShelterA_1_88': 797.0, 'init_ShelterA_1_89': 799.0, 'init_ShelterA_1_90': 801.0, 'init_ShelterA_1_91': 804.0, 'init_ShelterA_1_92': 807.0, 'init_ShelterA_1_93': 812.0, 'init_ShelterA_1_95': 814.0, 'init_ShelterA_2_117': 829.0, 'init_ShelterA_1_96': 849.0, 'init_ShelterA_1_97': 851.0, 'init_ShelterA_1_98': 853.0, 'init_ShelterA_1_99': 857.0, 'init_ShelterA_1_100': 860.0, 'init_ShelterA_1_101': 862.0, 'init_ShelterA_1_103': 865.0, 'init_ShelterA_1_104': 868.0, 'init_ShelterA_1_105': 871.0, 'init_ShelterA_1_107': 874.0, 'init_ShelterA_1_109': 877.0, 'init_ShelterA_1_110': 902.0, 'init_ShelterA_1_111': 904.0, 'init_ShelterA_1_112': 918.0, 'init_ShelterA_1_113': 920.0, 'init_ShelterA_1_114': 922.0, 'init_ShelterA_1_115': 925.0, 'init_ShelterA_1_116': 928.0, 'init_ShelterA_1_118': 931.0, 'init_ShelterA_1_119': 933.0, 'init_ShelterA_2_141': 933.0, 'init_ShelterA_1_120': 937.0, 'init_ShelterA_1_121': 949.0, 'init_ShelterA_1_122': 956.0, 'init_ShelterA_1_123': 958.0, 'init_ShelterA_1_124': 961.0, 'init_ShelterA_1_125': 968.0, 'init_ShelterA_1_126': 972.0, 'init_ShelterA_2_144': 996.0, 'init_ShelterA_2_146': 1000.0, 'init_ShelterA_2_147': 1002.0, 'init_ShelterA_1_127': 1004.0, 'init_ShelterA_2_155': 1019.0, 'init_ShelterA_1_128': 1037.0, 'init_ShelterA_1_129': 1039.0, 'init_ShelterA_1_130': 1041.0, 'init_ShelterA_1_157': 1041.0, 'init_ShelterA_1_131': 1043.0, 'init_ShelterA_2_158': 1043.0, 'init_ShelterA_1_132': 1047.0, 'init_ShelterA_1_133': 1049.0, 'init_ShelterA_1_134': 1053.0, 'init_ShelterA_1_135': 1055.0, 'init_ShelterA_1_136': 1059.0, 'init_ShelterA_1_137': 1061.0, 'init_ShelterA_1_138': 1065.0, 'init_ShelterA_1_139': 1067.0, 'init_ShelterA_1_140': 1070.0, 'init_ShelterA_1_161': 1102.0, 'init_ShelterA_2_164': 1104.0, 'init_ShelterA_1_142': 1109.0, 'init_ShelterA_1_143': 1111.0, 'init_ShelterA_1_165': 1111.0, 'init_ShelterA_1_145': 1113.0, 'init_ShelterA_2_169': 1113.0, 'init_ShelterA_1_148': 1116.0, 'init_ShelterA_1_149': 1118.0, 'init_ShelterA_1_150': 1121.0, 'init_ShelterA_1_151': 1124.0, 'init_ShelterA_1_152': 1127.0, 'init_ShelterA_1_153': 1130.0, 'init_ShelterA_1_154': 1133.0, 'init_ShelterA_1_156': 1136.0, 'init_ShelterA_1_159': 1139.0, 'init_ShelterA_1_160': 1182.0, 'init_ShelterA_1_180': 1183.0, 'init_ShelterA_1_162': 1186.0, 'init_ShelterA_1_163': 1188.0, 'init_ShelterA_1_166': 1196.0, 'init_ShelterA_1_183': 1199.0, 'init_ShelterA_1_167': 1202.0, 'init_ShelterA_1_168': 1203.0, 'init_ShelterA_1_170': 1205.0, 'init_ShelterA_1_171': 1208.0, 'init_ShelterA_1_172': 1210.0, 'init_ShelterA_1_189': 1212.0, 'init_ShelterA_2_192': 1214.0, 'init_ShelterA_2_193': 1216.0, 'init_ShelterA_1_173': 1221.0, 'init_ShelterA_1_174': 1223.0, 'init_ShelterA_1_175': 1225.0, 'init_ShelterA_1_176': 1239.0, 'init_ShelterA_1_177': 1247.0, 'init_ShelterA_2_194': 1257.0, 'init_ShelterA_1_178': 1268.0, 'init_ShelterA_1_179': 1275.0, 'init_ShelterA_2_206': 1289.0, 'init_ShelterA_1_181': 1290.0, 'init_ShelterA_1_182': 1291.0, 'init_ShelterA_1_184': 1311.0, 'init_ShelterA_1_185': 1313.0, 'init_ShelterA_1_186': 1315.0, 'init_ShelterA_1_187': 1317.0, 'init_ShelterA_1_188': 1319.0, 'init_ShelterA_1_190': 1322.0, 'init_ShelterA_1_191': 1324.0, 'init_ShelterA_1_213': 1378.0, 'init_ShelterA_2_218': 1381.0, 'init_ShelterA_1_195': 1389.0, 'init_ShelterA_1_196': 1390.0, 'init_ShelterA_1_197': 1393.0, 'init_ShelterA_1_198': 1395.0, 'init_ShelterA_1_250': 1396.0, 'init_ShelterA_1_199': 1397.0, 'init_ShelterA_1_200': 1399.0, 'init_ShelterA_1_201': 1402.0, 'init_ShelterA_1_202': 1405.0, 'init_ShelterA_1_203': 1408.0, 'init_ShelterA_1_204': 1411.0, 'init_ShelterA_1_205': 1414.0, 'init_ShelterA_1_207': 1417.0, 'init_ShelterA_1_208': 1430.0, 'init_ShelterA_1_209': 1432.0, 'init_ShelterA_2_258': 1452.0, 'init_ShelterA_1_210': 1460.0, 'init_ShelterA_1_211': 1461.0, 'init_ShelterA_1_212': 1464.0, 'init_ShelterA_1_214': 1466.0, 'init_ShelterA_1_215': 1468.0, 'init_ShelterA_1_216': 1470.0, 'init_ShelterA_1_217': 1472.0, 'init_ShelterA_1_219': 1475.0, 'init_ShelterA_1_247': 1478.0, 'init_ShelterA_1_248': 1481.0, 'init_ShelterA_1_249': 1496.0, 'init_ShelterA_1_251': 1497.0, 'init_ShelterA_1_252': 1499.0, 'init_ShelterA_1_253': 1501.0, 'newveh_ShelterA_1_236_28': 1550.0, 'init_ShelterA_1_254': 1554.0, 'init_ShelterA_1_255': 1556.0, 'init_ShelterA_1_256': 1558.0, 'init_ShelterA_1_257': 1560.0, 'init_ShelterA_1_259': 1562.0, 'init_ShelterA_1_260': 1564.0, 'init_ShelterA_1_261': 1566.0, 'newveh_ShelterA_1_231_27': 1568.0, 'init_ShelterA_1_262': 1569.0, 'init_ShelterA_1_263': 1572.0, 'newveh_ShelterA_2_220_2': 1586.0, 'newveh_ShelterA_2_246_25': 1597.0, 'newveh_ShelterA_2_245_24': 1615.0, 'newveh_ShelterA_2_244_23': 1622.0, 'newveh_ShelterA_2_243_22': 1630.0, 'newveh_ShelterA_2_242_21': 1636.0, 'newveh_ShelterA_2_241_20': 1641.0, 'newveh_ShelterA_1_221_26': 1642.0, 'newveh_ShelterA_2_240_19': 1647.0, 'init_ShelterA_1_291': 1652.0, 'newveh_ShelterA_2_239_18': 1652.0, 'newveh_ShelterA_2_238_17': 1656.0, 'init_ShelterA_1_295': 1661.0, 'newveh_ShelterA_1_268_33': 1666.0, 'newveh_ShelterA_1_270_34': 1672.0, 'init_ShelterA_1_307': 1676.0, 'newveh_ShelterA_2_237_16': 1676.0, 'newveh_ShelterA_2_235_15': 1684.0, 'newveh_ShelterA_2_234_14': 1689.0, 'newveh_ShelterA_2_233_13': 1695.0, 'newveh_ShelterA_2_232_12': 1701.0, 'newveh_ShelterA_2_230_11': 1707.0, 'newveh_ShelterA_2_229_10': 1714.0, 'newveh_ShelterA_2_228_9': 1722.0, 'newveh_ShelterA_2_227_8': 1730.0, 'newveh_ShelterA_2_226_7': 1734.0, 'newveh_ShelterA_1_276_43': 1735.0, 'newveh_ShelterA_2_225_6': 1739.0, 'init_ShelterA_1_311': 1744.0, 'newveh_ShelterA_2_224_5': 1747.0, 'init_ShelterA_1_312': 1749.0, 'newveh_ShelterA_1_280_47': 1754.0, 'newveh_ShelterA_2_223_4': 1755.0, 'newveh_ShelterA_2_222_3': 1760.0, 'newveh_ShelterA_2_264_29': 1767.0, 'newveh_ShelterA_2_267_32': 1772.0, 'newveh_ShelterA_2_266_31': 1781.0, 'newveh_ShelterA_2_265_30': 1786.0, 'init_ShelterA_1_292': 1789.0, 'newveh_ShelterA_2_273_38': 1798.0, 'newveh_ShelterA_2_272_37': 1806.0, 'newveh_ShelterA_2_271_36': 1814.0, 'newveh_ShelterA_2_308_82': 1823.0, 'init_ShelterA_1_320': 1832.0, 'newveh_ShelterA_2_296_81': 1832.0, 'init_ShelterA_1_321': 1839.0, 'newveh_ShelterA_2_294_80': 1842.0, 'init_ShelterA_1_324': 1845.0, 'newveh_ShelterA_2_293_79': 1851.0, 'init_ShelterA_1_325': 1852.0, 'init_ShelterA_1_327': 1856.0, 'init_ShelterA_1_344': 1860.0, 'newveh_ShelterA_2_310_84': 1861.0, 'newveh_ShelterA_2_309_83': 1871.0, 'newveh_ShelterA_2_269_35': 1880.0, 'newveh_ShelterA_2_274_39': 1890.0, 'init_ShelterA_2_347': 1897.0, 'newveh_ShelterA_2_278_42': 1900.0, 'newveh_ShelterA_2_277_41': 1909.0, 'newveh_ShelterA_2_275_40': 1919.0, 'init_ShelterA_1_313': 1921.0, 'newveh_ShelterA_2_282_46': 1931.0, 'init_ShelterA_2_363': 1933.0, 'newveh_ShelterA_2_281_45': 1941.0, 'newveh_ShelterA_2_279_44': 1951.0, 'newveh_ShelterA_2_284_49': 1960.0, 'newveh_ShelterA_2_283_48': 1970.0, 'newveh_ShelterA_2_285_50': 1980.0, 'init_ShelterA_2_366': 1984.0, 'newveh_ShelterA_2_286_51': 1990.0, 'newveh_ShelterA_2_290_55': 1999.0, 'newveh_ShelterA_1_318_70': 2006.0, 'newveh_ShelterA_2_289_54': 2009.0, 'init_ShelterA_1_379': 2019.0, 'newveh_ShelterA_2_288_53': 2019.0, 'init_ShelterA_1_382': 2025.0, 'newveh_ShelterA_1_326_73': 2029.0, 'newveh_ShelterA_2_287_52': 2032.0, 'init_ShelterA_1_323': 2034.0, 'init_ShelterA_1_329': 2036.0, 'init_ShelterA_1_330': 2038.0, 'newveh_ShelterA_2_297_56': 2047.0, 'newveh_ShelterA_2_299_58': 2056.0, 'newveh_ShelterA_2_298_57': 2065.0, 'newveh_ShelterA_2_343_106': 2075.0, 'newveh_ShelterA_2_340_105': 2084.0, 'init_ShelterA_1_387': 2090.0, 'newveh_ShelterA_2_338_104': 2094.0, 'init_ShelterA_1_399': 2099.0, 'newveh_ShelterA_1_337_76': 2103.0, 'newveh_ShelterA_2_336_103': 2104.0, 'newveh_ShelterA_1_353_87': 2113.0, 'newveh_ShelterA_2_334_102': 2113.0, 'newveh_ShelterA_2_333_101': 2123.0, 'newveh_ShelterA_1_352_86': 2124.0, 'newveh_ShelterA_1_357_92': 2129.0, 'newveh_ShelterA_2_332_100': 2133.0, 'newveh_ShelterA_2_341_108': 2142.0, 'newveh_ShelterA_2_339_107': 2152.0, 'newveh_ShelterA_2_360_118': 2162.0, 'init_ShelterA_1_346': 2164.0, 'newveh_ShelterA_2_300_59': 2174.0, 'newveh_ShelterA_2_302_61': 2184.0, 'newveh_ShelterA_1_391_112': 2186.0, 'newveh_ShelterA_2_301_60': 2193.0, 'newveh_ShelterA_2_303_62': 2203.0, 'newveh_ShelterA_1_385_111': 2209.0, 'newveh_ShelterA_2_304_63': 2212.0, 'newveh_ShelterA_2_305_64': 2222.0, 'newveh_ShelterA_2_306_65': 2242.0, 'init_ShelterA_1_350': 2244.0, 'init_ShelterA_1_351': 2247.0, 'init_ShelterA_1_354': 2249.0, 'init_ShelterA_1_358': 2251.0, 'init_ShelterA_1_359': 2253.0, 'init_ShelterA_1_361': 2255.0, 'init_ShelterA_1_362': 2257.0, 'newveh_ShelterA_2_378_122': 2267.0, 'newveh_ShelterA_2_377_121': 2275.0, 'init_ShelterA_1_364': 2277.0, 'init_ShelterA_1_365': 2279.0, 'newveh_ShelterA_2_314_66': 2287.0, 'newveh_ShelterA_2_317_69': 2296.0, 'newveh_ShelterA_2_319_71': 2304.0, 'newveh_ShelterA_2_316_68': 2313.0, 'newveh_ShelterA_2_315_67': 2323.0, 'init_ShelterA_1_374': 2325.0, 'newveh_ShelterA_2_322_72': 2340.0, 'init_ShelterA_1_380': 2342.0, 'init_ShelterA_1_381': 2344.0, 'init_ShelterA_1_383': 2346.0, 'newveh_ShelterA_2_376_120': 2355.0, 'newveh_ShelterA_2_375_119': 2363.0, 'init_ShelterA_1_384': 2365.0, 'newveh_ShelterA_2_328_74': 2387.0, 'init_ShelterA_1_388': 2390.0, 'init_ShelterA_1_392': 2392.0, 'init_ShelterA_1_395': 2394.0, 'init_ShelterA_1_398': 2396.0, 'newveh_ShelterA_2_345_85': 2402.0, 'newveh_ShelterA_2_342_78': 2407.0, 'newveh_ShelterA_2_331_75': 2415.0, 'newveh_ShelterA_2_335_77': 2424.0, 'newveh_ShelterA_2_355_90': 2433.0, 'newveh_ShelterA_2_356_91': 2442.0, 'newveh_ShelterA_2_349_89': 2452.0, 'newveh_ShelterA_2_348_88': 2462.0, 'newveh_ShelterA_2_367_93': 2471.0, 'newveh_ShelterA_2_368_95': 2481.0, 'newveh_ShelterA_2_390_110': 2491.0, 'newveh_ShelterA_2_394_113': 2501.0, 'newveh_ShelterA_2_389_109': 2510.0, 'newveh_ShelterA_2_370_94': 2520.0, 'newveh_ShelterA_2_372_98': 2530.0, 'newveh_ShelterA_2_371_97': 2540.0, 'newveh_ShelterA_2_369_96': 2549.0, 'newveh_ShelterA_2_373_99': 2559.0, 'newveh_ShelterA_2_386_115': 2568.0, 'newveh_ShelterA_2_397_114': 2575.0, 'newveh_ShelterA_2_396_117': 2579.0, 'newveh_ShelterA_2_393_116': 2584.0}
vehicle_abandant_time_by_pedestrianID_dict:{}
walking_distance_by_pedestrianID_dict:{}
route_change_time_by_vehID_dict:{'init_ShelterA_1_56': 430.0, 'init_ShelterA_2_60': 430.0, 'init_ShelterA_2_70': 430.0, 'init_ShelterA_1_61': 440.0, 'init_ShelterA_1_62': 440.0, 'init_ShelterA_1_65': 440.0, 'init_ShelterA_1_58': 450.0, 'init_ShelterA_1_59': 450.0, 'init_ShelterA_2_46': 450.0, 'init_ShelterA_1_63': 460.0, 'init_ShelterA_1_66': 460.0, 'init_ShelterA_1_67': 460.0, 'init_ShelterA_1_71': 460.0, 'init_ShelterA_1_64': 470.0, 'init_ShelterA_1_68': 470.0, 'init_ShelterA_1_72': 490.0, 'init_ShelterA_1_73': 500.0, 'init_ShelterA_1_74': 500.0, 'init_ShelterA_1_69': 510.0, 'init_ShelterA_2_76': 510.0, 'init_ShelterA_2_78': 510.0, 'init_ShelterA_1_75': 520.0, 'init_ShelterA_1_77': 520.0, 'init_ShelterA_1_80': 520.0, 'init_ShelterA_1_81': 520.0, 'init_ShelterA_1_82': 520.0, 'init_ShelterA_1_83': 520.0, 'init_ShelterA_1_84': 520.0, 'init_ShelterA_1_79': 530.0, 'init_ShelterA_1_88': 550.0, 'init_ShelterA_1_89': 570.0, 'init_ShelterA_1_90': 570.0, 'init_ShelterA_2_102': 570.0, 'init_ShelterA_1_87': 580.0, 'init_ShelterA_1_91': 580.0, 'init_ShelterA_1_93': 580.0, 'init_ShelterA_1_85': 590.0, 'init_ShelterA_1_86': 590.0, 'init_ShelterA_1_92': 590.0, 'init_ShelterA_1_95': 590.0, 'init_ShelterA_1_100': 600.0, 'init_ShelterA_1_96': 600.0, 'init_ShelterA_1_97': 600.0, 'init_ShelterA_1_98': 600.0, 'init_ShelterA_1_99': 600.0, 'init_ShelterA_2_94': 600.0, 'init_ShelterA_1_104': 610.0, 'init_ShelterA_1_105': 610.0, 'init_ShelterA_2_106': 610.0, 'init_ShelterA_1_101': 620.0, 'init_ShelterA_2_117': 650.0, 'init_ShelterA_1_107': 660.0, 'init_ShelterA_2_108': 660.0, 'init_ShelterA_1_103': 670.0, 'init_ShelterA_1_109': 670.0, 'init_ShelterA_1_110': 670.0, 'init_ShelterA_1_111': 670.0, 'init_ShelterA_1_112': 670.0, 'init_ShelterA_1_113': 670.0, 'init_ShelterA_1_114': 670.0, 'init_ShelterA_1_115': 680.0, 'init_ShelterA_1_116': 680.0, 'init_ShelterA_1_118': 680.0, 'init_ShelterA_1_119': 680.0, 'init_ShelterA_1_120': 680.0, 'init_ShelterA_1_122': 690.0, 'init_ShelterA_1_123': 690.0, 'init_ShelterA_1_124': 690.0, 'init_ShelterA_1_121': 700.0, 'init_ShelterA_1_125': 750.0, 'init_ShelterA_1_135': 750.0, 'init_ShelterA_2_141': 750.0, 'init_ShelterA_1_126': 760.0, 'init_ShelterA_1_127': 760.0, 'init_ShelterA_1_128': 770.0, 'init_ShelterA_1_131': 770.0, 'init_ShelterA_1_129': 780.0, 'init_ShelterA_1_130': 780.0, 'init_ShelterA_1_132': 780.0, 'init_ShelterA_1_133': 780.0, 'init_ShelterA_1_134': 780.0, 'init_ShelterA_1_136': 780.0, 'init_ShelterA_1_137': 780.0, 'init_ShelterA_1_138': 780.0, 'init_ShelterA_1_139': 780.0, 'init_ShelterA_1_140': 780.0, 'init_ShelterA_2_147': 850.0, 'init_ShelterA_2_158': 850.0, 'init_ShelterA_1_142': 860.0, 'init_ShelterA_1_143': 860.0, 'init_ShelterA_1_145': 860.0, 'init_ShelterA_1_148': 860.0, 'init_ShelterA_1_149': 860.0, 'init_ShelterA_2_144': 860.0, 'init_ShelterA_2_146': 860.0, 'init_ShelterA_1_150': 870.0, 'init_ShelterA_1_151': 870.0, 'init_ShelterA_1_152': 870.0, 'init_ShelterA_1_154': 870.0, 'init_ShelterA_1_156': 870.0, 'init_ShelterA_2_155': 870.0, 'init_ShelterA_1_153': 880.0, 'init_ShelterA_1_159': 880.0, 'init_ShelterA_1_160': 930.0, 'init_ShelterA_2_164': 930.0, 'init_ShelterA_2_169': 930.0, 'init_ShelterA_1_162': 940.0, 'init_ShelterA_1_166': 940.0, 'init_ShelterA_1_167': 940.0, 'init_ShelterA_1_168': 940.0, 'init_ShelterA_1_170': 940.0, 'init_ShelterA_1_171': 940.0, 'init_ShelterA_1_172': 940.0, 'init_ShelterA_1_174': 940.0, 'init_ShelterA_1_175': 940.0, 'init_ShelterA_1_163': 950.0, 'init_ShelterA_1_173': 950.0, 'init_ShelterA_1_176': 950.0, 'init_ShelterA_1_177': 950.0, 'init_ShelterA_1_220': 980.0, 'init_ShelterA_1_222': 980.0, 'init_ShelterA_1_223': 980.0, 'init_ShelterA_1_224': 980.0, 'init_ShelterA_1_225': 980.0, 'init_ShelterA_1_226': 980.0, 'init_ShelterA_1_227': 980.0, 'init_ShelterA_1_228': 980.0, 'init_ShelterA_1_229': 980.0, 'init_ShelterA_1_230': 980.0, 'init_ShelterA_1_232': 980.0, 'init_ShelterA_1_233': 980.0, 'init_ShelterA_1_234': 980.0, 'init_ShelterA_1_235': 980.0, 'init_ShelterA_1_237': 980.0, 'init_ShelterA_1_238': 980.0, 'init_ShelterA_1_239': 980.0, 'init_ShelterA_1_240': 980.0, 'init_ShelterA_1_241': 980.0, 'init_ShelterA_1_242': 980.0, 'init_ShelterA_1_243': 980.0, 'init_ShelterA_1_244': 980.0, 'init_ShelterA_1_245': 980.0, 'init_ShelterA_1_246': 980.0, 'init_ShelterA_2_194': 980.0, 'init_ShelterA_2_218': 980.0, 'init_ShelterA_2_221': 980.0, 'init_ShelterA_2_231': 980.0, 'init_ShelterA_2_236': 980.0, 'init_ShelterA_1_178': 990.0, 'init_ShelterA_1_179': 990.0, 'init_ShelterA_1_181': 1010.0, 'init_ShelterA_1_182': 1010.0, 'init_ShelterA_1_184': 1020.0, 'init_ShelterA_1_185': 1030.0, 'init_ShelterA_1_186': 1030.0, 'init_ShelterA_1_188': 1030.0, 'init_ShelterA_1_190': 1030.0, 'init_ShelterA_1_191': 1030.0, 'init_ShelterA_2_192': 1030.0, 'init_ShelterA_2_193': 1030.0, 'init_ShelterA_1_264': 1060.0, 'init_ShelterA_1_265': 1060.0, 'init_ShelterA_1_266': 1060.0, 'init_ShelterA_2_206': 1060.0, 'init_ShelterA_1_267': 1070.0, 'init_ShelterA_1_187': 1090.0, 'init_ShelterA_1_195': 1090.0, 'init_ShelterA_1_196': 1110.0, 'init_ShelterA_1_197': 1110.0, 'init_ShelterA_1_198': 1110.0, 'init_ShelterA_1_199': 1110.0, 'init_ShelterA_1_200': 1110.0, 'init_ShelterA_1_201': 1110.0, 'init_ShelterA_1_202': 1110.0, 'init_ShelterA_1_203': 1110.0, 'init_ShelterA_1_204': 1110.0, 'init_ShelterA_1_205': 1110.0, 'init_ShelterA_2_268': 1110.0, 'init_ShelterA_2_270': 1110.0, 'init_ShelterA_1_208': 1120.0, 'init_ShelterA_1_209': 1120.0, 'init_ShelterA_1_210': 1120.0, 'init_ShelterA_1_211': 1120.0, 'init_ShelterA_1_269': 1120.0, 'init_ShelterA_1_271': 1120.0, 'init_ShelterA_1_272': 1120.0, 'init_ShelterA_1_273': 1120.0, 'init_ShelterA_1_274': 1120.0, 'init_ShelterA_1_212': 1130.0, 'init_ShelterA_1_275': 1130.0, 'init_ShelterA_1_277': 1130.0, 'init_ShelterA_1_278': 1130.0, 'init_ShelterA_2_276': 1130.0, 'init_ShelterA_1_279': 1140.0, 'init_ShelterA_1_281': 1140.0, 'init_ShelterA_1_282': 1140.0, 'init_ShelterA_2_280': 1140.0, 'init_ShelterA_1_283': 1150.0, 'init_ShelterA_1_284': 1150.0, 'init_ShelterA_1_285': 1150.0, 'init_ShelterA_1_286': 1150.0, 'init_ShelterA_1_287': 1160.0, 'init_ShelterA_1_288': 1160.0, 'init_ShelterA_1_289': 1160.0, 'init_ShelterA_1_290': 1160.0, 'init_ShelterA_1_207': 1180.0, 'init_ShelterA_2_258': 1190.0, 'init_ShelterA_1_215': 1200.0, 'init_ShelterA_1_247': 1200.0, 'init_ShelterA_1_248': 1200.0, 'init_ShelterA_1_249': 1200.0, 'init_ShelterA_1_251': 1200.0, 'init_ShelterA_1_253': 1200.0, 'init_ShelterA_1_214': 1210.0, 'init_ShelterA_1_216': 1210.0, 'init_ShelterA_1_217': 1210.0, 'init_ShelterA_1_219': 1210.0, 'init_ShelterA_1_254': 1210.0, 'init_ShelterA_1_255': 1210.0, 'init_ShelterA_1_256': 1210.0, 'init_ShelterA_1_257': 1210.0, 'init_ShelterA_1_252': 1220.0, 'init_ShelterA_1_297': 1230.0, 'init_ShelterA_1_298': 1230.0, 'init_ShelterA_1_259': 1240.0, 'init_ShelterA_1_299': 1240.0, 'init_ShelterA_1_300': 1240.0, 'init_ShelterA_1_301': 1240.0, 'init_ShelterA_1_302': 1240.0, 'init_ShelterA_1_303': 1240.0, 'init_ShelterA_1_304': 1240.0, 'init_ShelterA_1_305': 1240.0, 'init_ShelterA_1_306': 1240.0, 'init_ShelterA_1_260': 1250.0, 'init_ShelterA_1_261': 1250.0, 'init_ShelterA_1_262': 1250.0, 'init_ShelterA_1_314': 1320.0, 'init_ShelterA_1_315': 1320.0, 'init_ShelterA_1_316': 1320.0, 'init_ShelterA_1_317': 1320.0, 'init_ShelterA_2_318': 1320.0, 'init_ShelterA_1_319': 1330.0, 'init_ShelterA_1_322': 1350.0, 'init_ShelterA_1_263': 1360.0, 'init_ShelterA_2_326': 1360.0, 'init_ShelterA_1_328': 1400.0, 'init_ShelterA_1_331': 1400.0, 'init_ShelterA_2_337': 1400.0, 'init_ShelterA_1_292': 1410.0, 'init_ShelterA_1_335': 1410.0, 'init_ShelterA_1_342': 1410.0, 'init_ShelterA_1_293': 1430.0, 'init_ShelterA_1_294': 1430.0, 'init_ShelterA_1_296': 1430.0, 'init_ShelterA_1_308': 1430.0, 'init_ShelterA_1_309': 1440.0, 'init_ShelterA_1_310': 1440.0, 'init_ShelterA_1_345': 1440.0, 'init_ShelterA_2_352': 1490.0, 'init_ShelterA_2_353': 1490.0, 'init_ShelterA_1_348': 1500.0, 'init_ShelterA_1_349': 1500.0, 'init_ShelterA_1_355': 1500.0, 'init_ShelterA_1_356': 1500.0, 'init_ShelterA_2_357': 1500.0, 'init_ShelterA_1_313': 1530.0, 'init_ShelterA_1_367': 1560.0, 'init_ShelterA_1_370': 1560.0, 'init_ShelterA_1_368': 1570.0, 'init_ShelterA_1_369': 1570.0, 'init_ShelterA_1_371': 1570.0, 'init_ShelterA_1_372': 1570.0, 'init_ShelterA_1_373': 1570.0, 'init_ShelterA_1_323': 1600.0, 'init_ShelterA_1_329': 1600.0, 'init_ShelterA_1_330': 1600.0, 'init_ShelterA_1_332': 1610.0, 'init_ShelterA_1_333': 1610.0, 'init_ShelterA_1_334': 1610.0, 'init_ShelterA_1_336': 1610.0, 'init_ShelterA_1_338': 1610.0, 'init_ShelterA_1_340': 1610.0, 'init_ShelterA_1_343': 1610.0, 'init_ShelterA_1_339': 1620.0, 'init_ShelterA_1_341': 1620.0, 'init_ShelterA_1_389': 1640.0, 'init_ShelterA_1_390': 1640.0, 'init_ShelterA_2_385': 1640.0, 'init_ShelterA_2_391': 1640.0, 'init_ShelterA_1_346': 1650.0, 'init_ShelterA_1_394': 1650.0, 'init_ShelterA_2_347': 1650.0, 'init_ShelterA_1_351': 1660.0, 'init_ShelterA_1_354': 1660.0, 'init_ShelterA_1_359': 1660.0, 'init_ShelterA_1_397': 1660.0, 'init_ShelterA_1_350': 1670.0, 'init_ShelterA_1_358': 1670.0, 'init_ShelterA_1_386': 1670.0, 'init_ShelterA_1_393': 1670.0, 'init_ShelterA_1_396': 1670.0, 'init_ShelterA_1_360': 1700.0, 'init_ShelterA_1_361': 1770.0, 'init_ShelterA_1_362': 1770.0, 'init_ShelterA_1_364': 1770.0, 'init_ShelterA_2_363': 1770.0, 'init_ShelterA_2_366': 1770.0, 'init_ShelterA_1_365': 1780.0, 'init_ShelterA_1_374': 1780.0, 'init_ShelterA_1_375': 1790.0, 'init_ShelterA_1_376': 1790.0, 'init_ShelterA_1_377': 1790.0, 'init_ShelterA_1_378': 1790.0, 'init_ShelterA_1_398': 1830.0, 'init_ShelterA_1_395': 1840.0, 'init_ShelterA_1_380': 1850.0, 'init_ShelterA_1_383': 1850.0, 'init_ShelterA_1_381': 1860.0, 'init_ShelterA_1_384': 1860.0, 'init_ShelterA_1_388': 1860.0, 'init_ShelterA_1_392': 1860.0}
pedestrian_count:0
route_changed_vehicle_count:321
route_change_event_count:321
rate_vehicle_abandonment:0.00%
wrong_way_driving_count:0
vehicle_abandonment_count:0
normalcy_bias_route_change_count:223
majority_bias_route_change_count:98
lane_changed_vehicle_count:0
info_obtained_lanechange_count:0
elapsed_time_lanechange_count:0
majority_bias_lanechange_count:0

=== Job Result ===
end=2026-07-13T02:06:18+0900
elapsed_seconds=338
exit_code=0
status=SUCCESS
