=== Job Info ===
job_name=va_s3_e1.0_v1.0_r29
host=schubert
pid=111022
scenario=3
early_rate=1.0
v2v_rate=1.0
run_id=29
config=/home/katagi/vehicle-assistant-system/scenarios/JIP/configs/config_scenario_3.toml
output_dir=/home/katagi/vehicle-assistant-system/schubert_logs/va_s3_e1.0_v1.0_r29
start=2026-07-13T01:06:22+0900
python_version=Python 3.12.3
sumo_version=Eclipse SUMO sumo Version v1_23_1+0435-630512a

=== Command ===
cd /home/katagi/vehicle-assistant-system/schubert_logs/va_s3_e1.0_v1.0_r29
PYTHONPATH=/home/katagi/vehicle-assistant-system:/home/katagi/tmp/sumo/tools:/home/katagi/local/sumo/tools:/home/katagi/tmp/sumo/tools:/home/katagi/local/sumo/tools:/home/katagi/tmp/sumo/tools:/home/katagi/local/sumo/tools: python3 -W ignore::UserWarning -m scenarios.JIP.1-1-4.simulation.runner_simulator --nogui /home/katagi/vehicle-assistant-system/scenarios/JIP/configs/config_scenario_3.toml 1.0 1.0
simulation_pid=111042
Step #0.00 (0ms ?*RT. ?UPS, TraCI: 337ms, vehicles TOT 1 ACT 1 BUF 0)                     Step #100.00 (0ms ?*RT. ?UPS, TraCI: 17ms, vehicles TOT 26 ACT 26 BUF 0)                  Step #200.00 (0ms ?*RT. ?UPS, TraCI: 39ms, vehicles TOT 51 ACT 51 BUF 0)                  Step #300.00 (1ms ~= 1000.00*RT, ~77000.00UPS, TraCI: 55ms, vehicles TOT 77 ACT 77 BUF 0) Step #400.00 (1ms ~= 1000.00*RT, ~104000.00UPS, TraCI: 1787ms, vehicles TOT 104 ACT 104 BUStep #500.00 (0ms ?*RT. ?UPS, TraCI: 1688ms, vehicles TOT 131 ACT 131 BUF 0)              Step #600.00 (1ms ~= 1000.00*RT, ~158000.00UPS, TraCI: 1196ms, vehicles TOT 158 ACT 158 BUStep #700.00 (1ms ~= 1000.00*RT, ~186000.00UPS, TraCI: 634ms, vehicles TOT 186 ACT 186 BUFStep #800.00 (1ms ~= 1000.00*RT, ~209000.00UPS, TraCI: 614ms, vehicles TOT 209 ACT 209 BUFStep #900.00 (1ms ~= 1000.00*RT, ~213000.00UPS, TraCI: 1832ms, vehicles TOT 239 ACT 213 BUStep #1000.00 (0ms ?*RT. ?UPS, TraCI: 2238ms, vehicles TOT 271 ACT 238 BUF 36)            Step #1100.00 (1ms ~= 1000.00*RT, ~255000.00UPS, TraCI: 1023ms, vehicles TOT 302 ACT 255 BStep #1200.00 (0ms ?*RT. ?UPS, TraCI: 1591ms, vehicles TOT 334 ACT 278 BUF 58)            Step #1300.00 (1ms ~= 1000.00*RT, ~299000.00UPS, TraCI: 2362ms, vehicles TOT 366 ACT 299 BStep #1400.00 (1ms ~= 1000.00*RT, ~320000.00UPS, TraCI: 2381ms, vehicles TOT 396 ACT 320 BStep #1500.00 (1ms ~= 1000.00*RT, ~336000.00UPS, TraCI: 1750ms, vehicles TOT 427 ACT 336 BStep #1600.00 (1ms ~= 1000.00*RT, ~354000.00UPS, TraCI: 1856ms, vehicles TOT 458 ACT 354 BStep #1700.00 (1ms ~= 1000.00*RT, ~382000.00UPS, TraCI: 2231ms, vehicles TOT 495 ACT 382 BStep #1800.00 (1ms ~= 1000.00*RT, ~400000.00UPS, TraCI: 2652ms, vehicles TOT 513 ACT 400 BStep #1900.00 (1ms ~= 1000.00*RT, ~400000.00UPS, TraCI: 1834ms, vehicles TOT 515 ACT 400 BStep #2000.00 (0ms ?*RT. ?UPS, TraCI: 997ms, vehicles TOT 515 ACT 400 BUF 0)              Step #2100.00 (0ms ?*RT. ?UPS, TraCI: 519ms, vehicles TOT 515 ACT 400 BUF 0)              Step #2200.00 (0ms ?*RT. ?UPS, TraCI: 105ms, vehicles TOT 515 ACT 400 BUF 0)              Step #2300.00 (1ms ~= 1000.00*RT, ~400000.00UPS, TraCI: 101ms, vehicles TOT 515 ACT 400 BUStep #2400.00 (0ms ?*RT. ?UPS, TraCI: 93ms, vehicles TOT 515 ACT 400 BUF 0)               Step #2500.00 (0ms ?*RT. ?UPS, TraCI: 77ms, vehicles TOT 515 ACT 400 BUF 0)               Step #2600.00 (0ms ?*RT. ?UPS, TraCI: 79ms, vehicles TOT 515 ACT 400 BUF 0)               Step #2700.00 (1ms ~= 1000.00*RT, ~400000.00UPS, TraCI: 78ms, vehicles TOT 515 ACT 400 BUFStep #2800.00 (0ms ?*RT. ?UPS, TraCI: 80ms, vehicles TOT 515 ACT 400 BUF 0)               Step #2900.00 (0ms ?*RT. ?UPS, TraCI: 80ms, vehicles TOT 515 ACT 400 BUF 0)               Step #3000.00 (0ms ?*RT. ?UPS, TraCI: 78ms, vehicles TOT 515 ACT 400 BUF 0)               
 Retrying in 1 seconds
出現数: {'A1': 362, 'A2': 38}
割合:
  Total: 400
  A1: 362 (90.50%)
  A2: 38 (9.50%)
  B1: 0 (0.00%)
  B2: 0 (0.00%)
mean elapsed_time: 549.1875
OK all vehs arrived 
平均渋滞継続時間: 457.81秒
OK all vehicle abandonment were detected
283
117
===== Simlation Result Summary =====
avg_congestion_duration: 457.81 
arrival_time_by_vehID_dict:{'init_ShelterA_1_0': 204.0, 'init_ShelterA_1_1': 212.0, 'init_ShelterA_1_2': 217.0, 'init_ShelterA_1_3': 221.0, 'init_ShelterA_1_4': 232.0, 'init_ShelterA_1_5': 237.0, 'init_ShelterA_1_7': 286.0, 'init_ShelterA_1_8': 293.0, 'init_ShelterA_1_9': 299.0, 'init_ShelterA_1_10': 306.0, 'init_ShelterA_2_6': 310.0, 'init_ShelterA_1_11': 313.0, 'init_ShelterA_1_12': 320.0, 'init_ShelterA_1_13': 328.0, 'init_ShelterA_1_14': 337.0, 'init_ShelterA_1_15': 346.0, 'init_ShelterA_1_16': 356.0, 'init_ShelterA_1_17': 365.0, 'init_ShelterA_1_18': 375.0, 'init_ShelterA_1_19': 385.0, 'init_ShelterA_1_20': 394.0, 'init_ShelterA_1_21': 404.0, 'init_ShelterA_1_22': 414.0, 'init_ShelterA_1_23': 424.0, 'init_ShelterA_1_24': 433.0, 'init_ShelterA_1_25': 443.0, 'init_ShelterA_1_26': 453.0, 'init_ShelterA_1_27': 462.0, 'init_ShelterA_1_28': 472.0, 'init_ShelterA_1_29': 482.0, 'init_ShelterA_1_30': 491.0, 'init_ShelterA_1_31': 501.0, 'init_ShelterA_1_32': 511.0, 'init_ShelterA_1_33': 520.0, 'init_ShelterA_1_34': 530.0, 'init_ShelterA_1_35': 539.0, 'init_ShelterA_1_42': 542.0, 'init_ShelterA_1_36': 549.0, 'init_ShelterA_1_37': 558.0, 'init_ShelterA_1_38': 568.0, 'init_ShelterA_1_39': 577.0, 'init_ShelterA_1_40': 587.0, 'init_ShelterA_2_41': 589.0, 'init_ShelterA_1_47': 594.0, 'init_ShelterA_1_48': 596.0, 'init_ShelterA_1_43': 599.0, 'init_ShelterA_1_49': 599.0, 'init_ShelterA_1_50': 602.0, 'init_ShelterA_1_53': 605.0, 'init_ShelterA_1_57': 607.0, 'init_ShelterA_1_44': 609.0, 'init_ShelterA_1_45': 618.0, 'init_ShelterA_2_46': 621.0, 'init_ShelterA_1_51': 631.0, 'init_ShelterA_1_61': 634.0, 'init_ShelterA_1_52': 640.0, 'init_ShelterA_1_54': 650.0, 'init_ShelterA_2_55': 652.0, 'init_ShelterA_1_64': 659.0, 'init_ShelterA_1_65': 661.0, 'init_ShelterA_1_56': 662.0, 'init_ShelterA_1_66': 664.0, 'init_ShelterA_1_67': 667.0, 'init_ShelterA_1_68': 670.0, 'init_ShelterA_1_58': 672.0, 'init_ShelterA_1_69': 673.0, 'init_ShelterA_1_71': 676.0, 'init_ShelterA_1_72': 679.0, 'init_ShelterA_1_59': 681.0, 'init_ShelterA_1_73': 682.0, 'init_ShelterA_2_60': 684.0, 'init_ShelterA_1_62': 694.0, 'init_ShelterA_1_74': 694.0, 'init_ShelterA_2_63': 696.0, 'init_ShelterA_1_70': 706.0, 'init_ShelterA_1_75': 716.0, 'init_ShelterA_1_76': 719.0, 'init_ShelterA_1_77': 721.0, 'init_ShelterA_1_79': 725.0, 'init_ShelterA_1_78': 726.0, 'init_ShelterA_2_87': 727.0, 'init_ShelterA_2_89': 729.0, 'init_ShelterA_1_90': 738.0, 'init_ShelterA_2_93': 741.0, 'init_ShelterA_2_96': 743.0, 'init_ShelterA_2_99': 745.0, 'init_ShelterA_1_80': 747.0, 'init_ShelterA_1_81': 749.0, 'init_ShelterA_1_82': 752.0, 'init_ShelterA_1_83': 755.0, 'init_ShelterA_1_84': 758.0, 'init_ShelterA_1_85': 767.0, 'init_ShelterA_1_106': 769.0, 'init_ShelterA_1_86': 769.0, 'init_ShelterA_1_88': 771.0, 'init_ShelterA_1_91': 774.0, 'init_ShelterA_1_92': 780.0, 'init_ShelterA_1_94': 823.0, 'init_ShelterA_1_95': 831.0, 'init_ShelterA_1_97': 833.0, 'init_ShelterA_1_98': 835.0, 'init_ShelterA_1_116': 839.0, 'init_ShelterA_1_100': 840.0, 'init_ShelterA_1_101': 842.0, 'init_ShelterA_1_119': 851.0, 'init_ShelterA_1_102': 856.0, 'init_ShelterA_1_121': 856.0, 'init_ShelterA_1_103': 858.0, 'init_ShelterA_2_122': 858.0, 'init_ShelterA_1_104': 866.0, 'init_ShelterA_1_105': 868.0, 'init_ShelterA_1_107': 870.0, 'init_ShelterA_1_108': 873.0, 'init_ShelterA_1_126': 914.0, 'init_ShelterA_1_109': 915.0, 'init_ShelterA_1_110': 917.0, 'init_ShelterA_1_127': 921.0, 'init_ShelterA_2_129': 924.0, 'init_ShelterA_1_111': 926.0, 'init_ShelterA_1_112': 928.0, 'init_ShelterA_1_132': 929.0, 'init_ShelterA_1_113': 930.0, 'init_ShelterA_1_114': 933.0, 'init_ShelterA_1_133': 935.0, 'init_ShelterA_1_115': 936.0, 'init_ShelterA_1_135': 941.0, 'init_ShelterA_1_117': 943.0, 'init_ShelterA_1_118': 945.0, 'init_ShelterA_1_120': 947.0, 'init_ShelterA_1_138': 949.0, 'init_ShelterA_1_140': 953.0, 'init_ShelterA_1_123': 973.0, 'init_ShelterA_1_124': 975.0, 'init_ShelterA_1_125': 977.0, 'init_ShelterA_1_128': 998.0, 'init_ShelterA_1_130': 1000.0, 'init_ShelterA_1_144': 1000.0, 'init_ShelterA_1_145': 1008.0, 'init_ShelterA_1_147': 1014.0, 'init_ShelterA_1_148': 1021.0, 'init_ShelterA_1_149': 1027.0, 'init_ShelterA_2_150': 1029.0, 'init_ShelterA_1_131': 1030.0, 'init_ShelterA_1_134': 1036.0, 'init_ShelterA_1_136': 1038.0, 'init_ShelterA_1_152': 1038.0, 'init_ShelterA_1_137': 1040.0, 'init_ShelterA_1_153': 1042.0, 'init_ShelterA_1_139': 1043.0, 'init_ShelterA_1_141': 1046.0, 'init_ShelterA_1_157': 1047.0, 'init_ShelterA_1_142': 1048.0, 'init_ShelterA_1_143': 1082.0, 'init_ShelterA_1_146': 1087.0, 'init_ShelterA_1_151': 1089.0, 'init_ShelterA_1_161': 1093.0, 'init_ShelterA_1_164': 1111.0, 'init_ShelterA_1_154': 1112.0, 'init_ShelterA_1_166': 1116.0, 'init_ShelterA_1_167': 1120.0, 'init_ShelterA_1_176': 1132.0, 'init_ShelterA_1_155': 1138.0, 'init_ShelterA_1_156': 1139.0, 'init_ShelterA_1_158': 1142.0, 'init_ShelterA_1_159': 1144.0, 'init_ShelterA_1_160': 1175.0, 'init_ShelterA_1_162': 1176.0, 'init_ShelterA_1_163': 1179.0, 'init_ShelterA_1_177': 1181.0, 'init_ShelterA_1_165': 1185.0, 'init_ShelterA_1_178': 1188.0, 'init_ShelterA_1_179': 1193.0, 'init_ShelterA_1_168': 1194.0, 'init_ShelterA_1_169': 1197.0, 'init_ShelterA_1_180': 1198.0, 'init_ShelterA_1_170': 1199.0, 'init_ShelterA_1_181': 1205.0, 'init_ShelterA_1_182': 1211.0, 'init_ShelterA_1_183': 1218.0, 'init_ShelterA_1_171': 1221.0, 'init_ShelterA_1_172': 1224.0, 'init_ShelterA_1_173': 1226.0, 'init_ShelterA_1_209': 1226.0, 'init_ShelterA_1_174': 1228.0, 'init_ShelterA_1_175': 1230.0, 'init_ShelterA_1_212': 1235.0, 'init_ShelterA_1_213': 1244.0, 'init_ShelterA_1_214': 1249.0, 'init_ShelterA_2_215': 1252.0, 'init_ShelterA_1_216': 1256.0, 'init_ShelterA_1_184': 1282.0, 'newveh_ShelterA_2_185_0': 1302.0, 'init_ShelterA_1_217': 1314.0, 'newveh_ShelterA_2_186_1': 1353.0, 'newveh_ShelterA_1_207_25': 1376.0, 'newveh_ShelterA_2_187_2': 1379.0, 'newveh_ShelterA_1_203_24': 1381.0, 'newveh_ShelterA_2_188_3': 1384.0, 'newveh_ShelterA_1_196_23': 1386.0, 'init_ShelterA_2_218': 1388.0, 'init_ShelterA_1_222': 1399.0, 'newveh_ShelterA_2_189_4': 1401.0, 'init_ShelterA_1_231': 1403.0, 'newveh_ShelterA_2_190_5': 1408.0, 'newveh_ShelterA_2_191_6': 1413.0, 'newveh_ShelterA_2_192_7': 1419.0, 'newveh_ShelterA_2_193_8': 1424.0, 'newveh_ShelterA_2_194_9': 1430.0, 'newveh_ShelterA_2_197_11': 1437.0, 'newveh_ShelterA_2_195_10': 1444.0, 'newveh_ShelterA_2_198_12': 1452.0, 'init_ShelterA_1_234': 1460.0, 'newveh_ShelterA_2_199_13': 1460.0, 'init_ShelterA_1_239': 1467.0, 'newveh_ShelterA_2_200_14': 1469.0, 'newveh_ShelterA_2_201_15': 1478.0, 'newveh_ShelterA_1_230_26': 1481.0, 'newveh_ShelterA_2_204_17': 1486.0, 'init_ShelterA_1_258': 1488.0, 'init_ShelterA_1_261': 1493.0, 'newveh_ShelterA_2_202_16': 1493.0, 'init_ShelterA_1_262': 1497.0, 'newveh_ShelterA_2_205_18': 1500.0, 'newveh_ShelterA_2_208_20': 1507.0, 'newveh_ShelterA_2_206_19': 1516.0, 'newveh_ShelterA_2_211_22': 1525.0, 'newveh_ShelterA_2_210_21': 1547.0, 'init_ShelterA_1_219': 1549.0, 'init_ShelterA_1_220': 1552.0, 'init_ShelterA_1_224': 1554.0, 'init_ShelterA_1_264': 1555.0, 'init_ShelterA_1_226': 1556.0, 'init_ShelterA_1_227': 1559.0, 'init_ShelterA_1_228': 1561.0, 'init_ShelterA_1_266': 1563.0, 'init_ShelterA_1_232': 1564.0, 'init_ShelterA_2_267': 1565.0, 'init_ShelterA_1_233': 1567.0, 'init_ShelterA_1_235': 1570.0, 'newveh_ShelterA_1_236_31': 1571.0, 'init_ShelterA_1_237': 1573.0, 'init_ShelterA_1_238': 1576.0, 'init_ShelterA_1_269': 1576.0, 'init_ShelterA_1_240': 1579.0, 'init_ShelterA_1_242': 1582.0, 'newveh_ShelterA_1_241_32': 1582.0, 'init_ShelterA_1_243': 1585.0, 'init_ShelterA_1_244': 1588.0, 'newveh_ShelterA_1_255_35': 1588.0, 'init_ShelterA_1_256': 1591.0, 'init_ShelterA_1_263': 1594.0, 'newveh_ShelterA_2_225_27': 1599.0, 'newveh_ShelterA_1_247_33': 1634.0, 'newveh_ShelterA_2_221_28': 1635.0, 'init_ShelterA_1_265': 1637.0, 'init_ShelterA_1_285': 1639.0, 'newveh_ShelterA_1_246_34': 1645.0, 'init_ShelterA_1_287': 1652.0, 'newveh_ShelterA_2_229_30': 1660.0, 'init_ShelterA_1_288': 1661.0, 'newveh_ShelterA_2_223_29': 1673.0, 'init_ShelterA_1_268': 1676.0, 'init_ShelterA_1_270': 1678.0, 'init_ShelterA_1_271': 1680.0, 'init_ShelterA_1_272': 1682.0, 'init_ShelterA_1_275': 1684.0, 'init_ShelterA_1_279': 1687.0, 'init_ShelterA_1_292': 1725.0, 'init_ShelterA_1_294': 1731.0, 'init_ShelterA_1_295': 1737.0, 'init_ShelterA_1_283': 1740.0, 'init_ShelterA_1_299': 1742.0, 'init_ShelterA_1_300': 1748.0, 'init_ShelterA_1_301': 1755.0, 'newveh_ShelterA_2_257_36': 1760.0, 'init_ShelterA_1_304': 1761.0, 'init_ShelterA_1_286': 1762.0, 'init_ShelterA_2_305': 1763.0, 'newveh_ShelterA_1_277_51': 1769.0, 'newveh_ShelterA_2_260_38': 1771.0, 'newveh_ShelterA_1_282_54': 1773.0, 'newveh_ShelterA_2_259_37': 1777.0, 'newveh_ShelterA_2_245_39': 1784.0, 'newveh_ShelterA_2_249_41': 1791.0, 'newveh_ShelterA_2_248_40': 1799.0, 'newveh_ShelterA_2_250_42': 1807.0, 'init_ShelterA_1_317': 1811.0, 'newveh_ShelterA_2_251_43': 1816.0, 'newveh_ShelterA_1_284_55': 1818.0, 'newveh_ShelterA_2_252_44': 1823.0, 'newveh_ShelterA_2_253_45': 1830.0, 'newveh_ShelterA_2_306_92': 1838.0, 'newveh_ShelterA_2_254_46': 1845.0, 'init_ShelterA_1_319': 1846.0, 'newveh_ShelterA_2_303_91': 1852.0, 'init_ShelterA_1_320': 1853.0, 'init_ShelterA_1_302': 1854.0, 'init_ShelterA_1_321': 1858.0, 'newveh_ShelterA_2_274_48': 1863.0, 'init_ShelterA_1_322': 1864.0, 'init_ShelterA_1_324': 1869.0, 'newveh_ShelterA_2_278_50': 1872.0, 'init_ShelterA_1_325': 1875.0, 'newveh_ShelterA_2_273_47': 1881.0, 'init_ShelterA_1_326': 1882.0, 'newveh_ShelterA_2_276_49': 1888.0, 'init_ShelterA_1_331': 1890.0, 'newveh_ShelterA_2_281_53': 1893.0, 'init_ShelterA_1_333': 1897.0, 'newveh_ShelterA_2_280_52': 1897.0, 'init_ShelterA_1_335': 1903.0, 'init_ShelterA_1_336': 1908.0, 'init_ShelterA_1_323': 1910.0, 'init_ShelterA_1_337': 1914.0, 'init_ShelterA_1_343': 1920.0, 'init_ShelterA_1_344': 1926.0, 'init_ShelterA_1_329': 1928.0, 'init_ShelterA_1_345': 1932.0, 'init_ShelterA_2_351': 1935.0, 'init_ShelterA_1_353': 1939.0, 'init_ShelterA_1_355': 1949.0, 'init_ShelterA_1_357': 1954.0, 'newveh_ShelterA_2_291_56': 1987.0, 'init_ShelterA_1_358': 1994.0, 'init_ShelterA_1_359': 2001.0, 'init_ShelterA_1_361': 2007.0, 'newveh_ShelterA_2_289_57': 2010.0, 'init_ShelterA_1_346': 2012.0, 'init_ShelterA_1_362': 2013.0, 'init_ShelterA_1_347': 2014.0, 'init_ShelterA_1_363': 2020.0, 'newveh_ShelterA_1_312_63': 2027.0, 'newveh_ShelterA_2_298_62': 2030.0, 'newveh_ShelterA_2_297_61': 2034.0, 'init_ShelterA_1_366': 2035.0, 'init_ShelterA_1_367': 2044.0, 'newveh_ShelterA_2_296_60': 2044.0, 'newveh_ShelterA_2_293_59': 2051.0, 'newveh_ShelterA_1_315_66': 2052.0, 'newveh_ShelterA_2_290_58': 2055.0, 'newveh_ShelterA_1_311_65': 2058.0, 'newveh_ShelterA_1_307_64': 2062.0, 'init_ShelterA_1_370': 2067.0, 'init_ShelterA_1_373': 2090.0, 'init_ShelterA_1_364': 2095.0, 'init_ShelterA_1_365': 2096.0, 'init_ShelterA_1_381': 2103.0, 'init_ShelterA_1_382': 2111.0, 'init_ShelterA_2_383': 2113.0, 'init_ShelterA_1_384': 2121.0, 'init_ShelterA_1_385': 2127.0, 'init_ShelterA_1_386': 2134.0, 'init_ShelterA_1_387': 2139.0, 'newveh_ShelterA_2_308_67': 2142.0, 'init_ShelterA_1_388': 2143.0, 'newveh_ShelterA_2_310_69': 2149.0, 'newveh_ShelterA_2_309_68': 2157.0, 'newveh_ShelterA_2_389_113': 2162.0, 'newveh_ShelterA_2_399_114': 2166.0, 'newveh_ShelterA_2_313_70': 2202.0, 'newveh_ShelterA_2_316_72': 2209.0, 'newveh_ShelterA_2_314_71': 2215.0, 'newveh_ShelterA_2_318_73': 2220.0, 'newveh_ShelterA_2_327_76': 2227.0, 'newveh_ShelterA_2_338_75': 2235.0, 'newveh_ShelterA_2_332_74': 2239.0, 'newveh_ShelterA_2_340_81': 2243.0, 'newveh_ShelterA_2_339_80': 2289.0, 'newveh_ShelterA_1_394_105': 2292.0, 'newveh_ShelterA_2_342_83': 2296.0, 'newveh_ShelterA_1_393_104': 2297.0, 'newveh_ShelterA_2_341_82': 2302.0, 'newveh_ShelterA_2_334_79': 2308.0, 'newveh_ShelterA_2_330_78': 2314.0, 'newveh_ShelterA_2_328_77': 2320.0, 'newveh_ShelterA_2_360_84': 2325.0, 'newveh_ShelterA_2_348_85': 2330.0, 'newveh_ShelterA_2_374_94': 2336.0, 'newveh_ShelterA_2_371_93': 2342.0, 'newveh_ShelterA_2_356_90': 2349.0, 'newveh_ShelterA_2_354_89': 2356.0, 'newveh_ShelterA_2_352_88': 2364.0, 'newveh_ShelterA_2_350_87': 2372.0, 'newveh_ShelterA_2_349_86': 2376.0, 'newveh_ShelterA_2_368_95': 2381.0, 'newveh_ShelterA_2_376_99': 2392.0, 'newveh_ShelterA_2_369_96': 2400.0, 'newveh_ShelterA_2_375_98': 2405.0, 'newveh_ShelterA_2_372_97': 2410.0, 'newveh_ShelterA_2_377_100': 2416.0, 'newveh_ShelterA_2_378_101': 2422.0, 'newveh_ShelterA_2_390_106': 2429.0, 'newveh_ShelterA_2_380_103': 2436.0, 'newveh_ShelterA_2_379_102': 2444.0, 'newveh_ShelterA_2_398_112': 2453.0, 'newveh_ShelterA_2_397_111': 2462.0, 'newveh_ShelterA_2_396_110': 2470.0, 'newveh_ShelterA_2_395_109': 2478.0, 'newveh_ShelterA_2_392_108': 2482.0, 'newveh_ShelterA_2_391_107': 2486.0}
vehicle_abandant_time_by_pedestrianID_dict:{}
walking_distance_by_pedestrianID_dict:{}
route_change_time_by_vehID_dict:{'init_ShelterA_2_41': 340.0, 'init_ShelterA_2_46': 340.0, 'init_ShelterA_1_42': 370.0, 'init_ShelterA_1_49': 370.0, 'init_ShelterA_1_50': 370.0, 'init_ShelterA_1_47': 380.0, 'init_ShelterA_1_48': 380.0, 'init_ShelterA_1_53': 410.0, 'init_ShelterA_2_55': 410.0, 'init_ShelterA_1_57': 420.0, 'init_ShelterA_2_60': 430.0, 'init_ShelterA_2_63': 430.0, 'init_ShelterA_1_65': 440.0, 'init_ShelterA_1_61': 460.0, 'init_ShelterA_1_64': 460.0, 'init_ShelterA_1_66': 460.0, 'init_ShelterA_1_67': 460.0, 'init_ShelterA_1_68': 460.0, 'init_ShelterA_1_69': 460.0, 'init_ShelterA_1_71': 490.0, 'init_ShelterA_1_72': 490.0, 'init_ShelterA_1_73': 500.0, 'init_ShelterA_1_74': 500.0, 'init_ShelterA_1_76': 510.0, 'init_ShelterA_1_78': 510.0, 'init_ShelterA_1_80': 510.0, 'init_ShelterA_1_82': 520.0, 'init_ShelterA_1_84': 520.0, 'init_ShelterA_2_87': 520.0, 'init_ShelterA_1_77': 550.0, 'init_ShelterA_1_81': 550.0, 'init_ShelterA_1_83': 550.0, 'init_ShelterA_1_85': 550.0, 'init_ShelterA_1_86': 550.0, 'init_ShelterA_1_88': 560.0, 'init_ShelterA_2_93': 570.0, 'init_ShelterA_2_89': 580.0, 'init_ShelterA_1_91': 590.0, 'init_ShelterA_1_92': 590.0, 'init_ShelterA_2_96': 600.0, 'init_ShelterA_2_99': 600.0, 'init_ShelterA_1_103': 610.0, 'init_ShelterA_1_104': 610.0, 'init_ShelterA_1_97': 610.0, 'init_ShelterA_1_98': 610.0, 'init_ShelterA_1_100': 620.0, 'init_ShelterA_1_101': 620.0, 'init_ShelterA_1_95': 620.0, 'init_ShelterA_1_102': 640.0, 'init_ShelterA_1_94': 640.0, 'init_ShelterA_1_107': 660.0, 'init_ShelterA_1_108': 670.0, 'init_ShelterA_1_109': 670.0, 'init_ShelterA_1_110': 670.0, 'init_ShelterA_1_111': 670.0, 'init_ShelterA_1_105': 680.0, 'init_ShelterA_1_112': 680.0, 'init_ShelterA_1_113': 680.0, 'init_ShelterA_1_114': 680.0, 'init_ShelterA_1_115': 680.0, 'init_ShelterA_1_117': 680.0, 'init_ShelterA_1_118': 680.0, 'init_ShelterA_1_120': 690.0, 'init_ShelterA_2_122': 690.0, 'init_ShelterA_1_123': 700.0, 'init_ShelterA_1_124': 700.0, 'init_ShelterA_1_125': 750.0, 'init_ShelterA_1_130': 750.0, 'init_ShelterA_2_129': 750.0, 'init_ShelterA_1_131': 760.0, 'init_ShelterA_1_136': 770.0, 'init_ShelterA_1_137': 770.0, 'init_ShelterA_1_134': 780.0, 'init_ShelterA_1_142': 780.0, 'init_ShelterA_1_128': 790.0, 'init_ShelterA_1_141': 790.0, 'init_ShelterA_1_185': 810.0, 'init_ShelterA_1_186': 810.0, 'init_ShelterA_1_187': 810.0, 'init_ShelterA_1_188': 810.0, 'init_ShelterA_1_189': 810.0, 'init_ShelterA_1_190': 810.0, 'init_ShelterA_1_191': 810.0, 'init_ShelterA_1_192': 810.0, 'init_ShelterA_1_193': 810.0, 'init_ShelterA_1_194': 810.0, 'init_ShelterA_1_195': 810.0, 'init_ShelterA_1_197': 810.0, 'init_ShelterA_1_198': 810.0, 'init_ShelterA_1_199': 810.0, 'init_ShelterA_1_200': 810.0, 'init_ShelterA_1_201': 810.0, 'init_ShelterA_1_202': 810.0, 'init_ShelterA_1_204': 810.0, 'init_ShelterA_1_205': 810.0, 'init_ShelterA_1_206': 810.0, 'init_ShelterA_1_208': 810.0, 'init_ShelterA_1_210': 810.0, 'init_ShelterA_1_211': 810.0, 'init_ShelterA_2_196': 810.0, 'init_ShelterA_2_203': 810.0, 'init_ShelterA_2_207': 810.0, 'init_ShelterA_1_143': 830.0, 'init_ShelterA_1_139': 840.0, 'init_ShelterA_1_146': 840.0, 'init_ShelterA_2_150': 840.0, 'init_ShelterA_1_155': 860.0, 'init_ShelterA_1_156': 860.0, 'init_ShelterA_1_158': 860.0, 'init_ShelterA_1_160': 860.0, 'init_ShelterA_1_151': 870.0, 'init_ShelterA_1_154': 870.0, 'init_ShelterA_1_162': 940.0, 'init_ShelterA_1_171': 940.0, 'init_ShelterA_1_174': 940.0, 'init_ShelterA_1_159': 950.0, 'init_ShelterA_1_165': 950.0, 'init_ShelterA_1_168': 950.0, 'init_ShelterA_1_170': 950.0, 'init_ShelterA_1_172': 950.0, 'init_ShelterA_1_173': 950.0, 'init_ShelterA_1_175': 950.0, 'init_ShelterA_1_163': 960.0, 'init_ShelterA_1_169': 960.0, 'init_ShelterA_2_230': 960.0, 'init_ShelterA_1_225': 970.0, 'init_ShelterA_1_221': 980.0, 'init_ShelterA_1_223': 980.0, 'init_ShelterA_1_229': 980.0, 'init_ShelterA_2_236': 980.0, 'init_ShelterA_2_241': 1000.0, 'init_ShelterA_2_215': 1020.0, 'init_ShelterA_1_217': 1030.0, 'init_ShelterA_2_247': 1030.0, 'init_ShelterA_2_246': 1040.0, 'init_ShelterA_2_255': 1040.0, 'init_ShelterA_1_257': 1050.0, 'init_ShelterA_1_259': 1050.0, 'init_ShelterA_1_260': 1050.0, 'init_ShelterA_1_245': 1060.0, 'init_ShelterA_1_248': 1060.0, 'init_ShelterA_1_249': 1060.0, 'init_ShelterA_1_250': 1060.0, 'init_ShelterA_1_251': 1060.0, 'init_ShelterA_1_252': 1060.0, 'init_ShelterA_1_253': 1060.0, 'init_ShelterA_1_254': 1060.0, 'init_ShelterA_1_184': 1090.0, 'init_ShelterA_1_273': 1130.0, 'init_ShelterA_1_274': 1130.0, 'init_ShelterA_1_276': 1140.0, 'init_ShelterA_1_278': 1140.0, 'init_ShelterA_2_277': 1140.0, 'init_ShelterA_1_280': 1150.0, 'init_ShelterA_1_281': 1150.0, 'init_ShelterA_2_282': 1150.0, 'init_ShelterA_2_284': 1160.0, 'init_ShelterA_2_218': 1170.0, 'init_ShelterA_1_291': 1220.0, 'init_ShelterA_1_289': 1240.0, 'init_ShelterA_1_290': 1240.0, 'init_ShelterA_1_293': 1240.0, 'init_ShelterA_1_296': 1240.0, 'init_ShelterA_1_297': 1240.0, 'init_ShelterA_1_298': 1240.0, 'init_ShelterA_1_224': 1270.0, 'init_ShelterA_1_226': 1270.0, 'init_ShelterA_1_232': 1280.0, 'init_ShelterA_1_237': 1280.0, 'init_ShelterA_1_228': 1290.0, 'init_ShelterA_1_233': 1290.0, 'init_ShelterA_1_238': 1290.0, 'init_ShelterA_1_240': 1290.0, 'init_ShelterA_1_243': 1290.0, 'init_ShelterA_1_256': 1290.0, 'init_ShelterA_2_312': 1290.0, 'init_ShelterA_1_227': 1300.0, 'init_ShelterA_1_235': 1300.0, 'init_ShelterA_1_242': 1300.0, 'init_ShelterA_1_244': 1300.0, 'init_ShelterA_2_307': 1300.0, 'init_ShelterA_2_311': 1300.0, 'init_ShelterA_2_315': 1300.0, 'init_ShelterA_1_220': 1310.0, 'init_ShelterA_1_265': 1310.0, 'init_ShelterA_1_308': 1310.0, 'init_ShelterA_1_309': 1310.0, 'init_ShelterA_1_310': 1310.0, 'init_ShelterA_1_313': 1310.0, 'init_ShelterA_1_314': 1310.0, 'init_ShelterA_1_316': 1310.0, 'init_ShelterA_1_219': 1320.0, 'init_ShelterA_1_263': 1320.0, 'init_ShelterA_2_267': 1320.0, 'init_ShelterA_1_318': 1340.0, 'init_ShelterA_1_332': 1400.0, 'init_ShelterA_1_338': 1400.0, 'init_ShelterA_1_327': 1410.0, 'init_ShelterA_1_328': 1410.0, 'init_ShelterA_1_330': 1410.0, 'init_ShelterA_1_334': 1410.0, 'init_ShelterA_1_339': 1410.0, 'init_ShelterA_1_340': 1410.0, 'init_ShelterA_1_341': 1410.0, 'init_ShelterA_1_342': 1410.0, 'init_ShelterA_1_286': 1430.0, 'init_ShelterA_1_283': 1440.0, 'init_ShelterA_1_268': 1450.0, 'init_ShelterA_1_270': 1450.0, 'init_ShelterA_1_271': 1450.0, 'init_ShelterA_1_272': 1450.0, 'init_ShelterA_1_275': 1450.0, 'init_ShelterA_1_279': 1450.0, 'init_ShelterA_2_351': 1460.0, 'init_ShelterA_1_360': 1480.0, 'init_ShelterA_1_348': 1490.0, 'init_ShelterA_1_349': 1490.0, 'init_ShelterA_1_350': 1490.0, 'init_ShelterA_1_352': 1490.0, 'init_ShelterA_1_354': 1490.0, 'init_ShelterA_1_356': 1490.0, 'init_ShelterA_2_305': 1500.0, 'init_ShelterA_1_302': 1510.0, 'init_ShelterA_1_303': 1510.0, 'init_ShelterA_1_306': 1510.0, 'init_ShelterA_1_371': 1560.0, 'init_ShelterA_1_374': 1560.0, 'init_ShelterA_1_368': 1570.0, 'init_ShelterA_1_369': 1570.0, 'init_ShelterA_1_372': 1570.0, 'init_ShelterA_1_375': 1570.0, 'init_ShelterA_1_376': 1570.0, 'init_ShelterA_1_377': 1570.0, 'init_ShelterA_1_378': 1570.0, 'init_ShelterA_1_379': 1580.0, 'init_ShelterA_1_380': 1580.0, 'init_ShelterA_1_323': 1650.0, 'init_ShelterA_1_329': 1650.0, 'init_ShelterA_2_393': 1650.0, 'init_ShelterA_2_394': 1650.0, 'init_ShelterA_1_390': 1670.0, 'init_ShelterA_1_391': 1670.0, 'init_ShelterA_1_392': 1670.0, 'init_ShelterA_1_395': 1670.0, 'init_ShelterA_1_396': 1670.0, 'init_ShelterA_1_397': 1670.0, 'init_ShelterA_1_398': 1670.0, 'init_ShelterA_1_346': 1810.0, 'init_ShelterA_1_347': 1810.0, 'init_ShelterA_2_383': 1850.0, 'init_ShelterA_1_389': 1860.0, 'init_ShelterA_1_399': 1870.0, 'init_ShelterA_1_364': 1900.0, 'init_ShelterA_1_365': 1900.0}
pedestrian_count:0
route_changed_vehicle_count:254
route_change_event_count:254
rate_vehicle_abandonment:0.00%
wrong_way_driving_count:0
vehicle_abandonment_count:0
normalcy_bias_route_change_count:173
majority_bias_route_change_count:81
lane_changed_vehicle_count:0
info_obtained_lanechange_count:0
elapsed_time_lanechange_count:0
majority_bias_lanechange_count:0

=== Job Result ===
end=2026-07-13T01:14:10+0900
elapsed_seconds=468
exit_code=0
status=SUCCESS
