=== Job Info ===
job_name=va_s9_e1.0_v1.0_r19
host=schubert
pid=128099
scenario=9
early_rate=1.0
v2v_rate=1.0
run_id=19
config=/home/katagi/vehicle-assistant-system/scenarios/JIP/configs/config_scenario_9.toml
output_dir=/home/katagi/vehicle-assistant-system/schubert_logs/va_s9_e1.0_v1.0_r19
start=2026-07-13T02:32:59+0900
python_version=Python 3.12.3
sumo_version=Eclipse SUMO sumo Version v1_23_1+0435-630512a

=== Command ===
cd /home/katagi/vehicle-assistant-system/schubert_logs/va_s9_e1.0_v1.0_r19
PYTHONPATH=/home/katagi/vehicle-assistant-system:/home/katagi/tmp/sumo/tools:/home/katagi/local/sumo/tools:/home/katagi/tmp/sumo/tools:/home/katagi/local/sumo/tools:/home/katagi/tmp/sumo/tools:/home/katagi/local/sumo/tools: python3 -W ignore::UserWarning -m scenarios.JIP.1-1-4.simulation.runner_simulator --nogui /home/katagi/vehicle-assistant-system/scenarios/JIP/configs/config_scenario_9.toml 1.0 1.0
simulation_pid=128119
Step #0.00 (0ms ?*RT. ?UPS, TraCI: 336ms, vehicles TOT 1 ACT 1 BUF 0)                     Step #100.00 (1ms ~= 1000.00*RT, ~26000.00UPS, TraCI: 17ms, vehicles TOT 26 ACT 26 BUF 0) Step #200.00 (0ms ?*RT. ?UPS, TraCI: 36ms, vehicles TOT 51 ACT 51 BUF 0)                  Step #300.00 (1ms ~= 1000.00*RT, ~77000.00UPS, TraCI: 54ms, vehicles TOT 77 ACT 77 BUF 0) Step #400.00 (0ms ?*RT. ?UPS, TraCI: 70ms, vehicles TOT 104 ACT 104 BUF 0)                Step #500.00 (1ms ~= 1000.00*RT, ~131000.00UPS, TraCI: 1808ms, vehicles TOT 131 ACT 131 BUStep #600.00 (1ms ~= 1000.00*RT, ~158000.00UPS, TraCI: 1378ms, vehicles TOT 158 ACT 158 BUStep #700.00 (1ms ~= 1000.00*RT, ~186000.00UPS, TraCI: 1091ms, vehicles TOT 186 ACT 186 BUStep #800.00 (1ms ~= 1000.00*RT, ~211000.00UPS, TraCI: 439ms, vehicles TOT 211 ACT 211 BUFStep #900.00 (0ms ?*RT. ?UPS, TraCI: 1149ms, vehicles TOT 239 ACT 212 BUF 32)             Step #1000.00 (1ms ~= 1000.00*RT, ~240000.00UPS, TraCI: 1534ms, vehicles TOT 269 ACT 240 BStep #1100.00 (1ms ~= 1000.00*RT, ~256000.00UPS, TraCI: 765ms, vehicles TOT 299 ACT 256 BUStep #1200.00 (1ms ~= 1000.00*RT, ~278000.00UPS, TraCI: 1856ms, vehicles TOT 333 ACT 278 BStep #1300.00 (0ms ?*RT. ?UPS, TraCI: 2836ms, vehicles TOT 357 ACT 299 BUF 69)            Step #1400.00 (1ms ~= 1000.00*RT, ~321000.00UPS, TraCI: 3275ms, vehicles TOT 388 ACT 321 BStep #1500.00 (1ms ~= 1000.00*RT, ~333000.00UPS, TraCI: 2388ms, vehicles TOT 403 ACT 333 BStep #1600.00 (0ms ?*RT. ?UPS, TraCI: 2522ms, vehicles TOT 440 ACT 366 BUF 34)            Step #1700.00 (1ms ~= 1000.00*RT, ~382000.00UPS, TraCI: 2078ms, vehicles TOT 463 ACT 382 BStep #1800.00 (1ms ~= 1000.00*RT, ~400000.00UPS, TraCI: 1455ms, vehicles TOT 489 ACT 400 BStep #1900.00 (0ms ?*RT. ?UPS, TraCI: 2041ms, vehicles TOT 489 ACT 400 BUF 0)             Step #2000.00 (1ms ~= 1000.00*RT, ~400000.00UPS, TraCI: 1624ms, vehicles TOT 489 ACT 400 BStep #2100.00 (0ms ?*RT. ?UPS, TraCI: 1239ms, vehicles TOT 489 ACT 400 BUF 0)             Step #2200.00 (0ms ?*RT. ?UPS, TraCI: 721ms, vehicles TOT 489 ACT 400 BUF 0)              Step #2300.00 (0ms ?*RT. ?UPS, TraCI: 81ms, vehicles TOT 489 ACT 400 BUF 0)               Step #2400.00 (0ms ?*RT. ?UPS, TraCI: 78ms, vehicles TOT 489 ACT 400 BUF 0)               Step #2500.00 (0ms ?*RT. ?UPS, TraCI: 77ms, vehicles TOT 489 ACT 400 BUF 0)               Step #2600.00 (0ms ?*RT. ?UPS, TraCI: 78ms, vehicles TOT 489 ACT 400 BUF 0)               Step #2700.00 (1ms ~= 1000.00*RT, ~400000.00UPS, TraCI: 77ms, vehicles TOT 489 ACT 400 BUFStep #2800.00 (0ms ?*RT. ?UPS, TraCI: 77ms, vehicles TOT 489 ACT 400 BUF 0)               Step #2900.00 (0ms ?*RT. ?UPS, TraCI: 77ms, vehicles TOT 489 ACT 400 BUF 0)               Step #3000.00 (0ms ?*RT. ?UPS, TraCI: 78ms, vehicles TOT 489 ACT 400 BUF 0)               
 Retrying in 1 seconds
出現数: {'A1': 357, 'A2': 43}
割合:
  Total: 400
  A1: 357 (89.25%)
  A2: 43 (10.75%)
  B1: 0 (0.00%)
  B2: 0 (0.00%)
mean elapsed_time: 519.435
OK all vehs arrived 
平均渋滞継続時間: 434.56秒
OK all vehicle abandonment were detected
302
98
===== Simlation Result Summary =====
avg_congestion_duration: 434.56 
arrival_time_by_vehID_dict:{'init_ShelterA_1_0': 204.0, 'init_ShelterA_1_1': 229.0, 'init_ShelterA_1_2': 236.0, 'init_ShelterA_1_3': 243.0, 'init_ShelterA_1_4': 248.0, 'init_ShelterA_1_5': 252.0, 'init_ShelterA_1_6': 283.0, 'init_ShelterA_1_7': 290.0, 'init_ShelterA_1_8': 295.0, 'init_ShelterA_1_9': 302.0, 'init_ShelterA_1_10': 307.0, 'init_ShelterA_1_11': 313.0, 'init_ShelterA_1_12': 319.0, 'init_ShelterA_1_13': 325.0, 'init_ShelterA_1_14': 332.0, 'init_ShelterA_1_15': 340.0, 'init_ShelterA_1_16': 348.0, 'init_ShelterA_1_17': 356.0, 'init_ShelterA_1_18': 361.0, 'init_ShelterA_1_21': 368.0, 'init_ShelterA_1_22': 375.0, 'init_ShelterA_1_23': 383.0, 'init_ShelterA_1_24': 391.0, 'init_ShelterA_1_25': 400.0, 'init_ShelterA_1_26': 410.0, 'init_ShelterA_1_27': 419.0, 'init_ShelterA_2_19': 426.0, 'init_ShelterA_1_28': 429.0, 'init_ShelterA_2_20': 431.0, 'init_ShelterA_1_29': 439.0, 'init_ShelterA_1_30': 448.0, 'init_ShelterA_1_32': 458.0, 'init_ShelterA_1_33': 468.0, 'init_ShelterA_1_34': 477.0, 'init_ShelterA_2_31': 486.0, 'init_ShelterA_1_35': 487.0, 'init_ShelterA_1_36': 497.0, 'init_ShelterA_1_37': 507.0, 'init_ShelterA_1_38': 516.0, 'init_ShelterA_1_39': 526.0, 'init_ShelterA_1_40': 536.0, 'init_ShelterA_1_41': 545.0, 'init_ShelterA_1_43': 555.0, 'init_ShelterA_1_44': 564.0, 'init_ShelterA_2_42': 571.0, 'init_ShelterA_1_45': 574.0, 'init_ShelterA_2_46': 576.0, 'init_ShelterA_1_47': 584.0, 'init_ShelterA_2_50': 584.0, 'init_ShelterA_1_48': 593.0, 'init_ShelterA_1_49': 603.0, 'init_ShelterA_1_51': 612.0, 'init_ShelterA_1_52': 622.0, 'init_ShelterA_1_53': 631.0, 'init_ShelterA_1_54': 641.0, 'init_ShelterA_1_55': 650.0, 'init_ShelterA_1_60': 651.0, 'init_ShelterA_1_61': 654.0, 'init_ShelterA_1_64': 658.0, 'init_ShelterA_1_56': 660.0, 'init_ShelterA_1_67': 660.0, 'init_ShelterA_1_68': 663.0, 'init_ShelterA_1_69': 666.0, 'init_ShelterA_1_57': 669.0, 'init_ShelterA_1_70': 669.0, 'init_ShelterA_1_72': 672.0, 'init_ShelterA_1_58': 678.0, 'init_ShelterA_1_59': 688.0, 'init_ShelterA_2_62': 690.0, 'init_ShelterA_2_63': 692.0, 'init_ShelterA_1_74': 693.0, 'init_ShelterA_1_75': 695.0, 'init_ShelterA_2_65': 695.0, 'init_ShelterA_1_66': 705.0, 'init_ShelterA_2_71': 707.0, 'init_ShelterA_1_77': 712.0, 'init_ShelterA_1_73': 717.0, 'init_ShelterA_1_76': 727.0, 'init_ShelterA_2_78': 729.0, 'init_ShelterA_1_79': 740.0, 'init_ShelterA_2_80': 742.0, 'init_ShelterA_1_84': 752.0, 'init_ShelterA_2_85': 754.0, 'init_ShelterA_1_81': 762.0, 'init_ShelterA_1_82': 764.0, 'init_ShelterA_1_86': 765.0, 'init_ShelterA_1_83': 767.0, 'init_ShelterA_1_87': 770.0, 'init_ShelterA_1_88': 773.0, 'init_ShelterA_1_91': 774.0, 'init_ShelterA_1_89': 777.0, 'init_ShelterA_1_90': 779.0, 'init_ShelterA_1_92': 782.0, 'init_ShelterA_1_94': 784.0, 'init_ShelterA_1_96': 794.0, 'init_ShelterA_1_97': 804.0, 'init_ShelterA_2_98': 806.0, 'init_ShelterA_1_100': 816.0, 'init_ShelterA_1_93': 817.0, 'init_ShelterA_1_95': 819.0, 'init_ShelterA_2_101': 819.0, 'init_ShelterA_1_104': 827.0, 'init_ShelterA_1_99': 831.0, 'init_ShelterA_1_106': 832.0, 'init_ShelterA_1_102': 833.0, 'init_ShelterA_2_113': 834.0, 'init_ShelterA_1_103': 838.0, 'init_ShelterA_1_115': 843.0, 'init_ShelterA_1_116': 847.0, 'init_ShelterA_1_118': 852.0, 'init_ShelterA_1_105': 872.0, 'init_ShelterA_1_107': 874.0, 'init_ShelterA_1_108': 877.0, 'init_ShelterA_1_109': 880.0, 'init_ShelterA_1_110': 896.0, 'init_ShelterA_1_111': 900.0, 'init_ShelterA_2_129': 911.0, 'init_ShelterA_1_112': 925.0, 'init_ShelterA_1_114': 927.0, 'init_ShelterA_1_117': 929.0, 'init_ShelterA_1_135': 932.0, 'init_ShelterA_1_119': 933.0, 'init_ShelterA_2_137': 934.0, 'init_ShelterA_1_120': 936.0, 'init_ShelterA_1_121': 940.0, 'init_ShelterA_1_122': 942.0, 'init_ShelterA_2_142': 942.0, 'init_ShelterA_1_123': 979.0, 'init_ShelterA_1_124': 981.0, 'init_ShelterA_1_125': 983.0, 'init_ShelterA_1_126': 985.0, 'init_ShelterA_1_127': 1002.0, 'init_ShelterA_1_128': 1005.0, 'init_ShelterA_1_130': 1017.0, 'init_ShelterA_1_131': 1019.0, 'init_ShelterA_1_132': 1021.0, 'init_ShelterA_1_133': 1026.0, 'init_ShelterA_1_152': 1027.0, 'init_ShelterA_1_134': 1028.0, 'init_ShelterA_2_154': 1029.0, 'init_ShelterA_1_136': 1047.0, 'init_ShelterA_1_138': 1049.0, 'init_ShelterA_1_139': 1051.0, 'init_ShelterA_1_140': 1054.0, 'init_ShelterA_1_141': 1057.0, 'init_ShelterA_1_143': 1060.0, 'init_ShelterA_1_144': 1107.0, 'init_ShelterA_1_145': 1109.0, 'init_ShelterA_1_146': 1111.0, 'init_ShelterA_2_168': 1115.0, 'init_ShelterA_1_147': 1117.0, 'init_ShelterA_1_148': 1119.0, 'init_ShelterA_1_149': 1121.0, 'init_ShelterA_1_150': 1124.0, 'init_ShelterA_1_151': 1126.0, 'init_ShelterA_1_170': 1128.0, 'init_ShelterA_1_153': 1129.0, 'init_ShelterA_1_155': 1132.0, 'init_ShelterA_1_172': 1132.0, 'init_ShelterA_1_156': 1135.0, 'init_ShelterA_1_157': 1148.0, 'init_ShelterA_1_158': 1150.0, 'init_ShelterA_1_159': 1152.0, 'init_ShelterA_1_160': 1160.0, 'init_ShelterA_2_177': 1169.0, 'init_ShelterA_1_161': 1174.0, 'init_ShelterA_1_162': 1175.0, 'init_ShelterA_1_179': 1193.0, 'init_ShelterA_1_163': 1196.0, 'init_ShelterA_1_164': 1198.0, 'init_ShelterA_1_180': 1201.0, 'init_ShelterA_1_182': 1207.0, 'init_ShelterA_2_184': 1209.0, 'init_ShelterA_1_165': 1214.0, 'init_ShelterA_1_166': 1215.0, 'init_ShelterA_1_185': 1216.0, 'init_ShelterA_1_167': 1218.0, 'init_ShelterA_1_169': 1220.0, 'init_ShelterA_1_186': 1221.0, 'init_ShelterA_1_171': 1222.0, 'init_ShelterA_1_214': 1228.0, 'init_ShelterA_1_173': 1229.0, 'init_ShelterA_1_174': 1231.0, 'init_ShelterA_1_175': 1233.0, 'init_ShelterA_1_215': 1233.0, 'init_ShelterA_1_216': 1237.0, 'init_ShelterA_1_176': 1258.0, 'init_ShelterA_1_178': 1275.0, 'init_ShelterA_1_181': 1289.0, 'init_ShelterA_1_183': 1291.0, 'newveh_ShelterA_2_187_0': 1310.0, 'init_ShelterA_1_217': 1324.0, 'newveh_ShelterA_2_188_1': 1347.0, 'newveh_ShelterA_2_189_2': 1363.0, 'newveh_ShelterA_1_208_25': 1376.0, 'newveh_ShelterA_1_207_24': 1382.0, 'newveh_ShelterA_2_190_3': 1382.0, 'newveh_ShelterA_1_205_23': 1387.0, 'newveh_ShelterA_1_200_22': 1392.0, 'newveh_ShelterA_2_191_4': 1394.0, 'newveh_ShelterA_1_213_26': 1398.0, 'newveh_ShelterA_2_193_6': 1401.0, 'init_ShelterA_1_218': 1404.0, 'newveh_ShelterA_2_192_5': 1406.0, 'init_ShelterA_1_219': 1411.0, 'newveh_ShelterA_2_194_7': 1412.0, 'newveh_ShelterA_2_195_8': 1417.0, 'init_ShelterA_1_220': 1418.0, 'newveh_ShelterA_2_196_9': 1423.0, 'init_ShelterA_1_221': 1425.0, 'newveh_ShelterA_2_197_10': 1430.0, 'init_ShelterA_1_222': 1433.0, 'newveh_ShelterA_2_198_11': 1437.0, 'init_ShelterA_1_223': 1439.0, 'init_ShelterA_1_224': 1444.0, 'newveh_ShelterA_2_199_12': 1444.0, 'init_ShelterA_1_225': 1449.0, 'newveh_ShelterA_2_201_13': 1453.0, 'init_ShelterA_1_229': 1456.0, 'newveh_ShelterA_2_202_14': 1461.0, 'init_ShelterA_1_231': 1462.0, 'newveh_ShelterA_2_203_15': 1470.0, 'init_ShelterA_1_232': 1473.0, 'init_ShelterA_1_233': 1479.0, 'newveh_ShelterA_2_204_16': 1479.0, 'init_ShelterA_1_235': 1485.0, 'newveh_ShelterA_2_209_18': 1489.0, 'init_ShelterA_1_238': 1490.0, 'init_ShelterA_1_239': 1496.0, 'newveh_ShelterA_2_206_17': 1498.0, 'init_ShelterA_1_240': 1503.0, 'newveh_ShelterA_2_210_19': 1505.0, 'newveh_ShelterA_2_211_20': 1509.0, 'init_ShelterA_1_241': 1510.0, 'newveh_ShelterA_2_212_21': 1514.0, 'init_ShelterA_1_246': 1517.0, 'init_ShelterA_1_247': 1521.0, 'init_ShelterA_1_250': 1526.0, 'init_ShelterA_1_226': 1541.0, 'init_ShelterA_1_228': 1543.0, 'init_ShelterA_1_251': 1545.0, 'init_ShelterA_1_252': 1552.0, 'init_ShelterA_1_253': 1557.0, 'init_ShelterA_1_230': 1558.0, 'init_ShelterA_1_234': 1559.0, 'init_ShelterA_1_236': 1561.0, 'init_ShelterA_1_255': 1563.0, 'init_ShelterA_1_257': 1568.0, 'init_ShelterA_1_258': 1575.0, 'init_ShelterA_1_259': 1582.0, 'init_ShelterA_1_260': 1589.0, 'init_ShelterA_1_263': 1597.0, 'init_ShelterA_1_266': 1606.0, 'init_ShelterA_1_269': 1616.0, 'init_ShelterA_2_270': 1618.0, 'init_ShelterA_1_271': 1626.0, 'newveh_ShelterA_1_254_30': 1631.0, 'newveh_ShelterA_1_248_29': 1639.0, 'init_ShelterA_1_283': 1644.0, 'init_ShelterA_2_286': 1647.0, 'init_ShelterA_1_287': 1654.0, 'newveh_ShelterA_2_273_66': 1655.0, 'newveh_ShelterA_1_256_36': 1660.0, 'newveh_ShelterA_2_227_27': 1663.0, 'init_ShelterA_1_288': 1666.0, 'newveh_ShelterA_2_237_28': 1670.0, 'init_ShelterA_1_289': 1673.0, 'init_ShelterA_1_290': 1677.0, 'newveh_ShelterA_1_262_40': 1681.0, 'init_ShelterA_1_295': 1729.0, 'newveh_ShelterA_2_291_68': 1733.0, 'init_ShelterA_1_296': 1735.0, 'init_ShelterA_1_297': 1741.0, 'newveh_ShelterA_2_242_31': 1743.0, 'newveh_ShelterA_1_268_42': 1748.0, 'newveh_ShelterA_2_244_33': 1749.0, 'newveh_ShelterA_2_243_32': 1754.0, 'init_ShelterA_1_299': 1755.0, 'init_ShelterA_1_300': 1760.0, 'newveh_ShelterA_2_249_35': 1762.0, 'init_ShelterA_1_302': 1765.0, 'newveh_ShelterA_2_245_34': 1768.0, 'init_ShelterA_1_305': 1772.0, 'newveh_ShelterA_2_264_38': 1774.0, 'newveh_ShelterA_1_272_44': 1777.0, 'newveh_ShelterA_1_285_46': 1781.0, 'newveh_ShelterA_2_261_37': 1782.0, 'newveh_ShelterA_2_265_39': 1786.0, 'newveh_ShelterA_2_267_41': 1791.0, 'init_ShelterA_1_318': 1813.0, 'newveh_ShelterA_1_276_45': 1818.0, 'newveh_ShelterA_2_303_70': 1830.0, 'newveh_ShelterA_2_322_72': 1838.0, 'init_ShelterA_1_323': 1847.0, 'init_ShelterA_1_324': 1855.0, 'init_ShelterA_1_325': 1859.0, 'newveh_ShelterA_2_317_71': 1859.0, 'init_ShelterA_1_298': 1861.0, 'init_ShelterA_1_301': 1863.0, 'init_ShelterA_1_326': 1864.0, 'init_ShelterA_1_304': 1865.0, 'init_ShelterA_1_306': 1867.0, 'init_ShelterA_1_307': 1869.0, 'init_ShelterA_1_308': 1872.0, 'newveh_ShelterA_2_282_43': 1878.0, 'newveh_ShelterA_2_327_74': 1896.0, 'init_ShelterA_1_328': 1903.0, 'newveh_ShelterA_2_332_75': 1908.0, 'init_ShelterA_1_329': 1912.0, 'init_ShelterA_1_335': 1917.0, 'init_ShelterA_1_337': 1922.0, 'newveh_ShelterA_2_274_47': 1927.0, 'init_ShelterA_1_319': 1929.0, 'init_ShelterA_1_320': 1931.0, 'init_ShelterA_1_321': 1933.0, 'init_ShelterA_1_343': 1938.0, 'init_ShelterA_2_345': 1940.0, 'newveh_ShelterA_2_275_48': 1941.0, 'newveh_ShelterA_2_277_49': 1946.0, 'newveh_ShelterA_2_278_50': 1951.0, 'newveh_ShelterA_2_279_51': 1956.0, 'newveh_ShelterA_2_280_52': 1961.0, 'newveh_ShelterA_2_284_54': 1969.0, 'newveh_ShelterA_2_281_53': 1974.0, 'newveh_ShelterA_2_342_78': 1978.0, 'newveh_ShelterA_2_348_80': 1989.0, 'init_ShelterA_1_347': 1990.0, 'init_ShelterA_1_349': 1998.0, 'init_ShelterA_1_350': 2003.0, 'init_ShelterA_1_352': 2007.0, 'newveh_ShelterA_2_346_79': 2019.0, 'init_ShelterA_1_330': 2022.0, 'init_ShelterA_1_361': 2023.0, 'init_ShelterA_1_331': 2024.0, 'init_ShelterA_1_333': 2026.0, 'init_ShelterA_1_334': 2028.0, 'init_ShelterA_1_366': 2028.0, 'init_ShelterA_1_336': 2030.0, 'init_ShelterA_1_339': 2032.0, 'init_ShelterA_1_370': 2034.0, 'init_ShelterA_1_340': 2035.0, 'newveh_ShelterA_2_292_55': 2050.0, 'newveh_ShelterA_2_294_57': 2060.0, 'newveh_ShelterA_2_293_56': 2066.0, 'init_ShelterA_1_344': 2068.0, 'newveh_ShelterA_2_367_86': 2076.0, 'init_ShelterA_1_371': 2081.0, 'newveh_ShelterA_2_365_85': 2081.0, 'newveh_ShelterA_2_363_84': 2087.0, 'newveh_ShelterA_1_309_58': 2089.0, 'newveh_ShelterA_2_368_88': 2094.0, 'newveh_ShelterA_1_313_65': 2104.0, 'init_ShelterA_1_377': 2109.0, 'newveh_ShelterA_2_364_87': 2109.0, 'init_ShelterA_1_351': 2112.0, 'init_ShelterA_1_353': 2114.0, 'init_ShelterA_1_354': 2116.0, 'init_ShelterA_1_379': 2117.0, 'init_ShelterA_1_355': 2118.0, 'init_ShelterA_1_356': 2120.0, 'init_ShelterA_1_381': 2121.0, 'init_ShelterA_1_357': 2123.0, 'init_ShelterA_1_358': 2125.0, 'init_ShelterA_1_359': 2128.0, 'init_ShelterA_1_360': 2130.0, 'init_ShelterA_1_362': 2133.0, 'init_ShelterA_1_372': 2165.0, 'init_ShelterA_1_373': 2167.0, 'init_ShelterA_1_374': 2175.0, 'init_ShelterA_1_382': 2177.0, 'init_ShelterA_1_383': 2184.0, 'init_ShelterA_1_384': 2189.0, 'init_ShelterA_1_385': 2195.0, 'init_ShelterA_1_386': 2201.0, 'newveh_ShelterA_2_310_59': 2203.0, 'init_ShelterA_1_387': 2208.0, 'newveh_ShelterA_2_316_64': 2209.0, 'newveh_ShelterA_2_315_63': 2213.0, 'init_ShelterA_1_390': 2215.0, 'init_ShelterA_1_391': 2223.0, 'newveh_ShelterA_2_314_62': 2228.0, 'init_ShelterA_1_392': 2232.0, 'newveh_ShelterA_2_312_61': 2237.0, 'init_ShelterA_1_393': 2240.0, 'newveh_ShelterA_2_311_60': 2244.0, 'init_ShelterA_1_378': 2246.0, 'init_ShelterA_1_380': 2248.0, 'init_ShelterA_1_395': 2250.0, 'init_ShelterA_1_396': 2259.0, 'init_ShelterA_1_397': 2267.0, 'init_ShelterA_1_398': 2274.0, 'init_ShelterA_1_399': 2280.0, 'newveh_ShelterA_1_338_67': 2284.0, 'newveh_ShelterA_1_369_73': 2289.0, 'newveh_ShelterA_2_341_69': 2308.0, 'newveh_ShelterA_2_375_76': 2357.0, 'newveh_ShelterA_2_388_81': 2367.0, 'newveh_ShelterA_2_394_83': 2372.0, 'newveh_ShelterA_2_376_77': 2376.0, 'newveh_ShelterA_2_389_82': 2398.0}
vehicle_abandant_time_by_pedestrianID_dict:{}
walking_distance_by_pedestrianID_dict:{}
route_change_time_by_vehID_dict:{'init_ShelterA_2_62': 430.0, 'init_ShelterA_2_63': 430.0, 'init_ShelterA_2_65': 430.0, 'init_ShelterA_2_71': 430.0, 'init_ShelterA_1_64': 440.0, 'init_ShelterA_1_67': 440.0, 'init_ShelterA_1_70': 440.0, 'init_ShelterA_1_69': 450.0, 'init_ShelterA_1_60': 460.0, 'init_ShelterA_1_61': 460.0, 'init_ShelterA_1_68': 460.0, 'init_ShelterA_1_75': 500.0, 'init_ShelterA_1_74': 510.0, 'init_ShelterA_2_78': 510.0, 'init_ShelterA_2_80': 510.0, 'init_ShelterA_1_72': 520.0, 'init_ShelterA_1_81': 520.0, 'init_ShelterA_1_87': 520.0, 'init_ShelterA_2_85': 520.0, 'init_ShelterA_1_83': 550.0, 'init_ShelterA_1_90': 550.0, 'init_ShelterA_1_77': 560.0, 'init_ShelterA_1_82': 560.0, 'init_ShelterA_1_88': 560.0, 'init_ShelterA_1_89': 560.0, 'init_ShelterA_1_92': 580.0, 'init_ShelterA_1_93': 580.0, 'init_ShelterA_1_95': 580.0, 'init_ShelterA_2_101': 600.0, 'init_ShelterA_2_98': 600.0, 'init_ShelterA_1_103': 610.0, 'init_ShelterA_1_105': 610.0, 'init_ShelterA_1_108': 610.0, 'init_ShelterA_1_99': 610.0, 'init_ShelterA_1_102': 650.0, 'init_ShelterA_1_107': 650.0, 'init_ShelterA_1_109': 660.0, 'init_ShelterA_1_110': 660.0, 'init_ShelterA_1_111': 660.0, 'init_ShelterA_1_112': 670.0, 'init_ShelterA_2_113': 670.0, 'init_ShelterA_1_114': 680.0, 'init_ShelterA_1_117': 680.0, 'init_ShelterA_1_119': 680.0, 'init_ShelterA_1_120': 680.0, 'init_ShelterA_1_122': 680.0, 'init_ShelterA_1_123': 700.0, 'init_ShelterA_1_125': 700.0, 'init_ShelterA_1_126': 700.0, 'init_ShelterA_1_121': 710.0, 'init_ShelterA_1_127': 750.0, 'init_ShelterA_1_128': 750.0, 'init_ShelterA_1_130': 760.0, 'init_ShelterA_2_129': 760.0, 'init_ShelterA_1_124': 770.0, 'init_ShelterA_1_132': 770.0, 'init_ShelterA_1_133': 770.0, 'init_ShelterA_1_134': 770.0, 'init_ShelterA_1_136': 770.0, 'init_ShelterA_1_138': 770.0, 'init_ShelterA_1_140': 770.0, 'init_ShelterA_2_137': 770.0, 'init_ShelterA_2_142': 770.0, 'init_ShelterA_1_131': 780.0, 'init_ShelterA_1_139': 780.0, 'init_ShelterA_1_141': 780.0, 'init_ShelterA_1_143': 780.0, 'init_ShelterA_1_144': 780.0, 'init_ShelterA_1_187': 810.0, 'init_ShelterA_1_188': 810.0, 'init_ShelterA_1_189': 810.0, 'init_ShelterA_1_190': 810.0, 'init_ShelterA_1_191': 810.0, 'init_ShelterA_1_192': 810.0, 'init_ShelterA_1_193': 810.0, 'init_ShelterA_1_194': 810.0, 'init_ShelterA_1_195': 810.0, 'init_ShelterA_1_196': 810.0, 'init_ShelterA_1_197': 810.0, 'init_ShelterA_1_198': 810.0, 'init_ShelterA_1_199': 810.0, 'init_ShelterA_1_201': 810.0, 'init_ShelterA_1_202': 810.0, 'init_ShelterA_1_203': 810.0, 'init_ShelterA_1_204': 810.0, 'init_ShelterA_1_206': 810.0, 'init_ShelterA_1_209': 810.0, 'init_ShelterA_1_210': 810.0, 'init_ShelterA_1_211': 810.0, 'init_ShelterA_1_212': 810.0, 'init_ShelterA_2_200': 810.0, 'init_ShelterA_2_205': 810.0, 'init_ShelterA_2_207': 810.0, 'init_ShelterA_2_208': 810.0, 'init_ShelterA_2_213': 810.0, 'init_ShelterA_1_146': 830.0, 'init_ShelterA_1_217': 830.0, 'init_ShelterA_1_148': 840.0, 'init_ShelterA_1_149': 840.0, 'init_ShelterA_1_150': 840.0, 'init_ShelterA_1_151': 840.0, 'init_ShelterA_1_145': 850.0, 'init_ShelterA_1_147': 850.0, 'init_ShelterA_1_153': 850.0, 'init_ShelterA_1_155': 850.0, 'init_ShelterA_2_154': 850.0, 'init_ShelterA_1_157': 860.0, 'init_ShelterA_1_159': 860.0, 'init_ShelterA_1_156': 870.0, 'init_ShelterA_1_160': 870.0, 'init_ShelterA_1_158': 880.0, 'init_ShelterA_1_161': 880.0, 'init_ShelterA_1_162': 880.0, 'init_ShelterA_1_164': 920.0, 'init_ShelterA_1_165': 930.0, 'init_ShelterA_1_166': 930.0, 'init_ShelterA_1_167': 930.0, 'init_ShelterA_2_168': 930.0, 'init_ShelterA_1_171': 940.0, 'init_ShelterA_2_177': 950.0, 'init_ShelterA_1_173': 960.0, 'init_ShelterA_1_175': 960.0, 'init_ShelterA_1_176': 960.0, 'init_ShelterA_1_178': 960.0, 'init_ShelterA_1_169': 970.0, 'init_ShelterA_1_174': 970.0, 'init_ShelterA_1_227': 980.0, 'init_ShelterA_1_237': 990.0, 'init_ShelterA_1_163': 1000.0, 'init_ShelterA_2_184': 1010.0, 'init_ShelterA_1_181': 1020.0, 'init_ShelterA_1_183': 1020.0, 'init_ShelterA_2_248': 1030.0, 'init_ShelterA_2_254': 1040.0, 'init_ShelterA_1_242': 1050.0, 'init_ShelterA_1_243': 1050.0, 'init_ShelterA_1_244': 1050.0, 'init_ShelterA_1_245': 1050.0, 'init_ShelterA_1_249': 1050.0, 'init_ShelterA_2_256': 1050.0, 'init_ShelterA_1_261': 1070.0, 'init_ShelterA_1_264': 1070.0, 'init_ShelterA_1_265': 1070.0, 'init_ShelterA_2_262': 1070.0, 'init_ShelterA_1_267': 1080.0, 'init_ShelterA_2_268': 1080.0, 'init_ShelterA_1_282': 1140.0, 'init_ShelterA_2_272': 1140.0, 'init_ShelterA_2_276': 1150.0, 'init_ShelterA_2_285': 1150.0, 'init_ShelterA_1_274': 1160.0, 'init_ShelterA_1_275': 1160.0, 'init_ShelterA_1_277': 1160.0, 'init_ShelterA_1_278': 1160.0, 'init_ShelterA_1_279': 1160.0, 'init_ShelterA_1_280': 1160.0, 'init_ShelterA_1_281': 1160.0, 'init_ShelterA_1_284': 1160.0, 'init_ShelterA_1_292': 1220.0, 'init_ShelterA_1_293': 1220.0, 'init_ShelterA_1_294': 1220.0, 'init_ShelterA_2_309': 1320.0, 'init_ShelterA_1_310': 1330.0, 'init_ShelterA_1_311': 1330.0, 'init_ShelterA_1_312': 1330.0, 'init_ShelterA_1_314': 1330.0, 'init_ShelterA_1_315': 1330.0, 'init_ShelterA_1_316': 1330.0, 'init_ShelterA_2_313': 1330.0, 'init_ShelterA_2_270': 1340.0, 'init_ShelterA_1_273': 1350.0, 'init_ShelterA_2_286': 1350.0, 'init_ShelterA_1_234': 1360.0, 'init_ShelterA_1_236': 1360.0, 'init_ShelterA_1_228': 1370.0, 'init_ShelterA_1_230': 1370.0, 'init_ShelterA_1_226': 1380.0, 'init_ShelterA_2_338': 1420.0, 'init_ShelterA_1_291': 1430.0, 'init_ShelterA_1_341': 1460.0, 'init_ShelterA_1_307': 1470.0, 'init_ShelterA_1_320': 1480.0, 'init_ShelterA_1_321': 1480.0, 'init_ShelterA_1_303': 1510.0, 'init_ShelterA_1_317': 1530.0, 'init_ShelterA_1_322': 1540.0, 'init_ShelterA_1_331': 1570.0, 'init_ShelterA_1_330': 1580.0, 'init_ShelterA_2_369': 1580.0, 'init_ShelterA_1_327': 1610.0, 'init_ShelterA_1_333': 1610.0, 'init_ShelterA_1_332': 1620.0, 'init_ShelterA_1_308': 1630.0, 'init_ShelterA_1_375': 1630.0, 'init_ShelterA_1_376': 1630.0, 'init_ShelterA_1_306': 1640.0, 'init_ShelterA_1_334': 1640.0, 'init_ShelterA_1_336': 1640.0, 'init_ShelterA_1_301': 1650.0, 'init_ShelterA_1_304': 1650.0, 'init_ShelterA_1_319': 1650.0, 'init_ShelterA_1_298': 1660.0, 'init_ShelterA_1_339': 1680.0, 'init_ShelterA_1_340': 1680.0, 'init_ShelterA_1_342': 1690.0, 'init_ShelterA_2_345': 1690.0, 'init_ShelterA_1_346': 1700.0, 'init_ShelterA_1_348': 1700.0, 'init_ShelterA_1_351': 1720.0, 'init_ShelterA_1_388': 1750.0, 'init_ShelterA_1_389': 1750.0, 'init_ShelterA_1_394': 1750.0, 'init_ShelterA_1_344': 1760.0, 'init_ShelterA_1_354': 1760.0, 'init_ShelterA_1_356': 1760.0, 'init_ShelterA_1_357': 1760.0, 'init_ShelterA_1_355': 1770.0, 'init_ShelterA_1_358': 1770.0, 'init_ShelterA_1_359': 1770.0, 'init_ShelterA_1_360': 1770.0, 'init_ShelterA_1_362': 1770.0, 'init_ShelterA_1_353': 1780.0, 'init_ShelterA_1_363': 1780.0, 'init_ShelterA_1_365': 1780.0, 'init_ShelterA_1_367': 1780.0, 'init_ShelterA_1_364': 1790.0, 'init_ShelterA_1_368': 1790.0, 'init_ShelterA_1_372': 1810.0, 'init_ShelterA_1_373': 1810.0, 'init_ShelterA_1_374': 1810.0, 'init_ShelterA_1_378': 1820.0, 'init_ShelterA_1_380': 1820.0}
pedestrian_count:0
route_changed_vehicle_count:232
route_change_event_count:232
rate_vehicle_abandonment:0.00%
wrong_way_driving_count:0
vehicle_abandonment_count:0
normalcy_bias_route_change_count:109
majority_bias_route_change_count:123
lane_changed_vehicle_count:0
info_obtained_lanechange_count:0
elapsed_time_lanechange_count:0
majority_bias_lanechange_count:0

=== Job Result ===
end=2026-07-13T02:41:03+0900
elapsed_seconds=484
exit_code=0
status=SUCCESS
