=== Job Info ===
job_name=va_s4_e1.0_v1.0_r39
host=schubert
pid=114405
scenario=4
early_rate=1.0
v2v_rate=1.0
run_id=39
config=/home/katagi/vehicle-assistant-system/scenarios/JIP/configs/config_scenario_4.toml
output_dir=/home/katagi/vehicle-assistant-system/schubert_logs/va_s4_e1.0_v1.0_r39
start=2026-07-13T01:23:46+0900
python_version=Python 3.12.3
sumo_version=Eclipse SUMO sumo Version v1_23_1+0435-630512a

=== Command ===
cd /home/katagi/vehicle-assistant-system/schubert_logs/va_s4_e1.0_v1.0_r39
PYTHONPATH=/home/katagi/vehicle-assistant-system:/home/katagi/tmp/sumo/tools:/home/katagi/local/sumo/tools:/home/katagi/tmp/sumo/tools:/home/katagi/local/sumo/tools:/home/katagi/tmp/sumo/tools:/home/katagi/local/sumo/tools: python3 -W ignore::UserWarning -m scenarios.JIP.1-1-4.simulation.runner_simulator --nogui /home/katagi/vehicle-assistant-system/scenarios/JIP/configs/config_scenario_4.toml 1.0 1.0
simulation_pid=114425
Step #0.00 (0ms ?*RT. ?UPS, TraCI: 337ms, vehicles TOT 1 ACT 1 BUF 0)                     Step #100.00 (0ms ?*RT. ?UPS, TraCI: 18ms, vehicles TOT 26 ACT 26 BUF 0)                  Step #200.00 (0ms ?*RT. ?UPS, TraCI: 37ms, vehicles TOT 51 ACT 51 BUF 0)                  Step #300.00 (1ms ~= 1000.00*RT, ~77000.00UPS, TraCI: 56ms, vehicles TOT 77 ACT 77 BUF 0) Step #400.00 (1ms ~= 1000.00*RT, ~104000.00UPS, TraCI: 1047ms, vehicles TOT 105 ACT 104 BUStep #500.00 (1ms ~= 1000.00*RT, ~131000.00UPS, TraCI: 1549ms, vehicles TOT 132 ACT 131 BUStep #600.00 (1ms ~= 1000.00*RT, ~158000.00UPS, TraCI: 1820ms, vehicles TOT 159 ACT 158 BUStep #700.00 (1ms ~= 1000.00*RT, ~186000.00UPS, TraCI: 1830ms, vehicles TOT 187 ACT 186 BUStep #800.00 (1ms ~= 1000.00*RT, ~199000.00UPS, TraCI: 3163ms, vehicles TOT 223 ACT 199 BUStep #900.00 (0ms ?*RT. ?UPS, TraCI: 2715ms, vehicles TOT 251 ACT 214 BUF 30)             Step #1000.00 (1ms ~= 1000.00*RT, ~232000.00UPS, TraCI: 1787ms, vehicles TOT 278 ACT 232 BStep #1100.00 (1ms ~= 1000.00*RT, ~257000.00UPS, TraCI: 1622ms, vehicles TOT 313 ACT 257 BStep #1200.00 (1ms ~= 1000.00*RT, ~275000.00UPS, TraCI: 1749ms, vehicles TOT 340 ACT 275 BStep #1300.00 (1ms ~= 1000.00*RT, ~306000.00UPS, TraCI: 2029ms, vehicles TOT 372 ACT 306 BStep #1400.00 (1ms ~= 1000.00*RT, ~321000.00UPS, TraCI: 2287ms, vehicles TOT 410 ACT 321 BStep #1500.00 (1ms ~= 1000.00*RT, ~346000.00UPS, TraCI: 2291ms, vehicles TOT 446 ACT 346 BStep #1600.00 (1ms ~= 1000.00*RT, ~361000.00UPS, TraCI: 2200ms, vehicles TOT 465 ACT 361 BStep #1700.00 (1ms ~= 1000.00*RT, ~385000.00UPS, TraCI: 2666ms, vehicles TOT 496 ACT 385 BStep #1800.00 (1ms ~= 1000.00*RT, ~400000.00UPS, TraCI: 2275ms, vehicles TOT 511 ACT 400 BStep #1900.00 (1ms ~= 1000.00*RT, ~400000.00UPS, TraCI: 1952ms, vehicles TOT 512 ACT 400 BStep #2000.00 (0ms ?*RT. ?UPS, TraCI: 1283ms, vehicles TOT 512 ACT 400 BUF 0)             Step #2100.00 (1ms ~= 1000.00*RT, ~400000.00UPS, TraCI: 1092ms, vehicles TOT 512 ACT 400 BStep #2200.00 (1ms ~= 1000.00*RT, ~400000.00UPS, TraCI: 272ms, vehicles TOT 512 ACT 400 BUStep #2300.00 (0ms ?*RT. ?UPS, TraCI: 91ms, vehicles TOT 512 ACT 400 BUF 0)               Step #2400.00 (0ms ?*RT. ?UPS, TraCI: 79ms, vehicles TOT 512 ACT 400 BUF 0)               Step #2500.00 (0ms ?*RT. ?UPS, TraCI: 77ms, vehicles TOT 512 ACT 400 BUF 0)               Step #2600.00 (0ms ?*RT. ?UPS, TraCI: 74ms, vehicles TOT 512 ACT 400 BUF 0)               Step #2700.00 (1ms ~= 1000.00*RT, ~400000.00UPS, TraCI: 77ms, vehicles TOT 512 ACT 400 BUFStep #2800.00 (0ms ?*RT. ?UPS, TraCI: 77ms, vehicles TOT 512 ACT 400 BUF 0)               Step #2900.00 (0ms ?*RT. ?UPS, TraCI: 77ms, vehicles TOT 512 ACT 400 BUF 0)               Step #3000.00 (0ms ?*RT. ?UPS, TraCI: 77ms, vehicles TOT 512 ACT 400 BUF 0)               
 Retrying in 1 seconds
出現数: {'A1': 358, 'A2': 42}
割合:
  Total: 400
  A1: 358 (89.50%)
  A2: 42 (10.50%)
  B1: 0 (0.00%)
  B2: 0 (0.00%)
mean elapsed_time: 556.6225
OK all vehs arrived 
平均渋滞継続時間: 478.25秒
OK all vehicle abandonment were detected
280
120
===== Simlation Result Summary =====
avg_congestion_duration: 478.25 
arrival_time_by_vehID_dict:{'init_ShelterA_1_0': 207.0, 'init_ShelterA_1_2': 235.0, 'init_ShelterA_1_3': 240.0, 'init_ShelterA_1_4': 245.0, 'init_ShelterA_1_5': 283.0, 'init_ShelterA_1_6': 288.0, 'init_ShelterA_1_7': 294.0, 'init_ShelterA_1_8': 299.0, 'init_ShelterA_1_9': 305.0, 'init_ShelterA_1_10': 311.0, 'init_ShelterA_1_11': 318.0, 'init_ShelterA_1_12': 325.0, 'init_ShelterA_2_1': 325.0, 'init_ShelterA_1_13': 333.0, 'init_ShelterA_1_14': 341.0, 'init_ShelterA_1_15': 350.0, 'init_ShelterA_1_16': 359.0, 'init_ShelterA_1_17': 369.0, 'init_ShelterA_1_18': 379.0, 'init_ShelterA_1_19': 388.0, 'init_ShelterA_1_20': 398.0, 'init_ShelterA_1_21': 408.0, 'init_ShelterA_1_22': 417.0, 'init_ShelterA_1_23': 427.0, 'init_ShelterA_1_24': 437.0, 'init_ShelterA_1_25': 446.0, 'init_ShelterA_1_26': 456.0, 'init_ShelterA_1_27': 466.0, 'init_ShelterA_1_28': 475.0, 'init_ShelterA_1_29': 485.0, 'init_ShelterA_1_30': 495.0, 'init_ShelterA_1_31': 505.0, 'init_ShelterA_1_32': 514.0, 'init_ShelterA_1_33': 523.0, 'init_ShelterA_1_43': 531.0, 'init_ShelterA_1_34': 533.0, 'init_ShelterA_1_35': 543.0, 'init_ShelterA_1_37': 552.0, 'init_ShelterA_1_45': 557.0, 'init_ShelterA_1_38': 562.0, 'init_ShelterA_1_39': 571.0, 'init_ShelterA_1_46': 574.0, 'init_ShelterA_1_47': 576.0, 'init_ShelterA_1_49': 580.0, 'newveh_ShelterA_1_36_0': 581.0, 'init_ShelterA_1_40': 590.0, 'init_ShelterA_2_41': 592.0, 'init_ShelterA_1_55': 597.0, 'init_ShelterA_1_42': 603.0, 'init_ShelterA_1_44': 612.0, 'init_ShelterA_1_48': 622.0, 'init_ShelterA_1_58': 622.0, 'init_ShelterA_1_50': 631.0, 'init_ShelterA_2_51': 634.0, 'init_ShelterA_1_60': 641.0, 'init_ShelterA_1_62': 643.0, 'init_ShelterA_1_52': 644.0, 'init_ShelterA_1_65': 646.0, 'init_ShelterA_1_53': 653.0, 'init_ShelterA_1_54': 663.0, 'init_ShelterA_1_56': 672.0, 'init_ShelterA_2_57': 674.0, 'init_ShelterA_1_66': 680.0, 'init_ShelterA_1_67': 682.0, 'init_ShelterA_1_59': 684.0, 'init_ShelterA_1_68': 685.0, 'init_ShelterA_2_61': 687.0, 'init_ShelterA_1_69': 688.0, 'init_ShelterA_1_70': 691.0, 'init_ShelterA_1_71': 694.0, 'init_ShelterA_1_63': 697.0, 'init_ShelterA_1_72': 697.0, 'init_ShelterA_1_73': 700.0, 'init_ShelterA_1_64': 706.0, 'init_ShelterA_1_74': 716.0, 'init_ShelterA_1_75': 726.0, 'init_ShelterA_1_76': 735.0, 'init_ShelterA_1_77': 745.0, 'init_ShelterA_2_78': 747.0, 'init_ShelterA_1_79': 757.0, 'init_ShelterA_1_80': 767.0, 'init_ShelterA_1_81': 777.0, 'init_ShelterA_1_83': 777.0, 'init_ShelterA_1_86': 779.0, 'init_ShelterA_1_89': 782.0, 'init_ShelterA_1_82': 786.0, 'init_ShelterA_1_84': 796.0, 'init_ShelterA_1_85': 806.0, 'init_ShelterA_1_87': 815.0, 'init_ShelterA_1_88': 825.0, 'init_ShelterA_1_90': 834.0, 'init_ShelterA_1_91': 844.0, 'init_ShelterA_1_92': 853.0, 'init_ShelterA_1_93': 863.0, 'init_ShelterA_1_94': 872.0, 'init_ShelterA_1_95': 882.0, 'init_ShelterA_1_96': 891.0, 'init_ShelterA_1_97': 901.0, 'init_ShelterA_2_98': 903.0, 'init_ShelterA_1_111': 910.0, 'init_ShelterA_1_99': 913.0, 'init_ShelterA_1_100': 923.0, 'init_ShelterA_1_119': 929.0, 'init_ShelterA_1_101': 932.0, 'init_ShelterA_1_120': 932.0, 'init_ShelterA_1_124': 935.0, 'init_ShelterA_1_102': 942.0, 'init_ShelterA_1_103': 951.0, 'init_ShelterA_1_104': 961.0, 'init_ShelterA_1_105': 970.0, 'init_ShelterA_1_106': 980.0, 'init_ShelterA_1_107': 989.0, 'init_ShelterA_1_108': 998.0, 'init_ShelterA_1_109': 1008.0, 'init_ShelterA_1_110': 1017.0, 'init_ShelterA_1_125': 1017.0, 'init_ShelterA_1_126': 1020.0, 'init_ShelterA_1_127': 1023.0, 'init_ShelterA_1_112': 1026.0, 'init_ShelterA_1_128': 1026.0, 'init_ShelterA_1_130': 1028.0, 'init_ShelterA_1_131': 1031.0, 'init_ShelterA_1_132': 1034.0, 'init_ShelterA_1_113': 1035.0, 'init_ShelterA_1_134': 1037.0, 'init_ShelterA_2_114': 1037.0, 'init_ShelterA_1_115': 1047.0, 'init_ShelterA_2_116': 1050.0, 'init_ShelterA_1_117': 1060.0, 'init_ShelterA_1_118': 1069.0, 'init_ShelterA_1_121': 1080.0, 'init_ShelterA_1_143': 1081.0, 'init_ShelterA_2_122': 1082.0, 'init_ShelterA_2_123': 1084.0, 'init_ShelterA_2_129': 1086.0, 'init_ShelterA_1_133': 1097.0, 'init_ShelterA_1_144': 1103.0, 'init_ShelterA_1_146': 1105.0, 'init_ShelterA_1_135': 1106.0, 'init_ShelterA_1_147': 1107.0, 'init_ShelterA_1_136': 1116.0, 'init_ShelterA_1_148': 1121.0, 'init_ShelterA_1_137': 1126.0, 'init_ShelterA_1_149': 1128.0, 'init_ShelterA_1_150': 1130.0, 'init_ShelterA_1_152': 1132.0, 'init_ShelterA_1_154': 1134.0, 'init_ShelterA_1_138': 1135.0, 'init_ShelterA_1_156': 1137.0, 'init_ShelterA_1_158': 1140.0, 'init_ShelterA_1_139': 1145.0, 'init_ShelterA_1_140': 1154.0, 'init_ShelterA_1_159': 1156.0, 'init_ShelterA_2_141': 1156.0, 'init_ShelterA_1_142': 1167.0, 'init_ShelterA_1_145': 1177.0, 'init_ShelterA_1_161': 1183.0, 'init_ShelterA_1_151': 1186.0, 'init_ShelterA_1_162': 1195.0, 'init_ShelterA_1_153': 1196.0, 'init_ShelterA_1_164': 1197.0, 'init_ShelterA_1_166': 1199.0, 'init_ShelterA_1_167': 1201.0, 'init_ShelterA_1_155': 1205.0, 'init_ShelterA_1_157': 1215.0, 'init_ShelterA_1_185': 1219.0, 'init_ShelterA_1_160': 1224.0, 'init_ShelterA_2_163': 1227.0, 'init_ShelterA_1_165': 1237.0, 'newveh_ShelterA_2_169_1': 1242.0, 'init_ShelterA_1_168': 1247.0, 'init_ShelterA_1_182': 1256.0, 'init_ShelterA_1_187': 1264.0, 'init_ShelterA_1_189': 1271.0, 'init_ShelterA_1_190': 1276.0, 'init_ShelterA_1_191': 1282.0, 'newveh_ShelterA_2_188_17': 1284.0, 'init_ShelterA_1_206': 1287.0, 'newveh_ShelterA_2_186_16': 1291.0, 'init_ShelterA_1_207': 1293.0, 'newveh_ShelterA_2_184_15': 1296.0, 'init_ShelterA_1_208': 1300.0, 'newveh_ShelterA_2_183_14': 1302.0, 'newveh_ShelterA_2_181_13': 1307.0, 'init_ShelterA_1_209': 1308.0, 'init_ShelterA_2_211': 1310.0, 'newveh_ShelterA_2_180_12': 1315.0, 'newveh_ShelterA_1_197_19': 1320.0, 'newveh_ShelterA_2_179_11': 1320.0, 'newveh_ShelterA_2_178_10': 1324.0, 'init_ShelterA_1_212': 1328.0, 'newveh_ShelterA_2_177_9': 1332.0, 'newveh_ShelterA_1_201_23': 1334.0, 'init_ShelterA_1_213': 1338.0, 'newveh_ShelterA_2_176_8': 1338.0, 'init_ShelterA_1_216': 1343.0, 'newveh_ShelterA_2_175_7': 1343.0, 'newveh_ShelterA_2_174_6': 1349.0, 'newveh_ShelterA_2_173_5': 1355.0, 'newveh_ShelterA_2_172_4': 1361.0, 'newveh_ShelterA_2_171_3': 1368.0, 'newveh_ShelterA_2_170_2': 1374.0, 'init_ShelterA_1_217': 1378.0, 'init_ShelterA_2_221': 1380.0, 'newveh_ShelterA_2_193_18': 1380.0, 'init_ShelterA_1_210': 1382.0, 'newveh_ShelterA_2_203_22': 1387.0, 'init_ShelterA_1_225': 1390.0, 'init_ShelterA_2_226': 1392.0, 'newveh_ShelterA_2_202_21': 1410.0, 'newveh_ShelterA_2_194_20': 1420.0, 'newveh_ShelterA_2_192_24': 1425.0, 'newveh_ShelterA_2_205_27': 1429.0, 'newveh_ShelterA_2_199_26': 1453.0, 'init_ShelterA_1_239': 1461.0, 'newveh_ShelterA_2_195_25': 1463.0, 'init_ShelterA_1_243': 1466.0, 'newveh_ShelterA_1_214_36': 1477.0, 'newveh_ShelterA_2_196_28': 1479.0, 'init_ShelterA_2_245': 1480.0, 'init_ShelterA_2_246': 1482.0, 'init_ShelterA_2_247': 1484.0, 'init_ShelterA_2_248': 1486.0, 'newveh_ShelterA_2_198_29': 1486.0, 'init_ShelterA_1_249': 1494.0, 'newveh_ShelterA_2_204_31': 1494.0, 'init_ShelterA_1_250': 1499.0, 'init_ShelterA_1_252': 1503.0, 'newveh_ShelterA_2_200_30': 1510.0, 'init_ShelterA_1_222': 1512.0, 'init_ShelterA_1_223': 1514.0, 'init_ShelterA_1_224': 1517.0, 'init_ShelterA_1_227': 1519.0, 'init_ShelterA_1_234': 1522.0, 'init_ShelterA_1_235': 1525.0, 'init_ShelterA_1_236': 1528.0, 'init_ShelterA_1_237': 1531.0, 'init_ShelterA_1_238': 1542.0, 'init_ShelterA_1_254': 1542.0, 'newveh_ShelterA_1_242_40': 1548.0, 'init_ShelterA_1_262': 1553.0, 'newveh_ShelterA_1_230_39': 1561.0, 'newveh_ShelterA_2_218_33': 1563.0, 'init_ShelterA_2_265': 1564.0, 'newveh_ShelterA_2_215_32': 1569.0, 'newveh_ShelterA_2_219_34': 1574.0, 'init_ShelterA_1_277': 1581.0, 'newveh_ShelterA_2_220_35': 1583.0, 'init_ShelterA_1_251': 1585.0, 'init_ShelterA_1_278': 1585.0, 'newveh_ShelterA_2_255_65': 1604.0, 'init_ShelterA_1_280': 1641.0, 'newveh_ShelterA_2_285_84': 1641.0, 'init_ShelterA_1_284': 1647.0, 'newveh_ShelterA_2_241_38': 1647.0, 'newveh_ShelterA_2_240_37': 1652.0, 'init_ShelterA_1_287': 1655.0, 'newveh_ShelterA_2_228_41': 1658.0, 'init_ShelterA_1_288': 1660.0, 'init_ShelterA_2_289': 1663.0, 'init_ShelterA_1_290': 1671.0, 'newveh_ShelterA_2_283_83': 1672.0, 'init_ShelterA_1_266': 1675.0, 'init_ShelterA_1_267': 1676.0, 'init_ShelterA_1_291': 1677.0, 'newveh_ShelterA_1_253_47': 1685.0, 'newveh_ShelterA_2_229_42': 1688.0, 'newveh_ShelterA_1_259_48': 1694.0, 'newveh_ShelterA_2_231_43': 1695.0, 'newveh_ShelterA_2_232_44': 1701.0, 'newveh_ShelterA_1_264_49': 1703.0, 'newveh_ShelterA_2_233_45': 1709.0, 'init_ShelterA_1_292': 1711.0, 'newveh_ShelterA_2_244_46': 1715.0, 'init_ShelterA_1_293': 1718.0, 'newveh_ShelterA_2_282_82': 1720.0, 'init_ShelterA_1_279': 1722.0, 'init_ShelterA_1_281': 1724.0, 'init_ShelterA_1_296': 1724.0, 'newveh_ShelterA_1_286_85': 1729.0, 'init_ShelterA_1_297': 1733.0, 'init_ShelterA_1_298': 1740.0, 'newveh_ShelterA_2_295_95': 1742.0, 'init_ShelterA_1_299': 1747.0, 'init_ShelterA_1_294': 1750.0, 'init_ShelterA_1_300': 1753.0, 'init_ShelterA_1_301': 1760.0, 'init_ShelterA_1_302': 1764.0, 'init_ShelterA_1_319': 1769.0, 'newveh_ShelterA_2_256_50': 1771.0, 'newveh_ShelterA_2_257_51': 1827.0, 'init_ShelterA_1_320': 1830.0, 'newveh_ShelterA_2_258_52': 1835.0, 'init_ShelterA_1_321': 1836.0, 'newveh_ShelterA_2_260_53': 1840.0, 'init_ShelterA_1_322': 1842.0, 'init_ShelterA_1_323': 1848.0, 'newveh_ShelterA_2_263_55': 1848.0, 'newveh_ShelterA_2_261_54': 1852.0, 'init_ShelterA_1_324': 1854.0, 'newveh_ShelterA_2_268_56': 1857.0, 'init_ShelterA_1_325': 1861.0, 'newveh_ShelterA_2_276_64': 1867.0, 'init_ShelterA_1_326': 1869.0, 'newveh_ShelterA_2_275_63': 1876.0, 'init_ShelterA_1_327': 1877.0, 'newveh_ShelterA_2_274_62': 1881.0, 'init_ShelterA_1_328': 1885.0, 'newveh_ShelterA_2_273_61': 1885.0, 'init_ShelterA_1_329': 1891.0, 'init_ShelterA_1_330': 1896.0, 'init_ShelterA_1_331': 1900.0, 'init_ShelterA_1_334': 1907.0, 'newveh_ShelterA_2_344_104': 1910.0, 'init_ShelterA_1_343': 1912.0, 'newveh_ShelterA_2_272_60': 1915.0, 'init_ShelterA_1_345': 1920.0, 'newveh_ShelterA_2_271_59': 1921.0, 'init_ShelterA_1_347': 1925.0, 'init_ShelterA_2_349': 1927.0, 'newveh_ShelterA_2_270_58': 1928.0, 'init_ShelterA_1_351': 1935.0, 'init_ShelterA_1_352': 1940.0, 'init_ShelterA_2_353': 1943.0, 'newveh_ShelterA_2_269_57': 1945.0, 'init_ShelterA_1_332': 1948.0, 'init_ShelterA_1_356': 1951.0, 'init_ShelterA_1_358': 1955.0, 'init_ShelterA_1_362': 1960.0, 'init_ShelterA_1_365': 1998.0, 'newveh_ShelterA_2_363_110': 2000.0, 'init_ShelterA_1_335': 2003.0, 'init_ShelterA_1_368': 2004.0, 'init_ShelterA_1_348': 2005.0, 'init_ShelterA_1_350': 2007.0, 'init_ShelterA_1_370': 2011.0, 'init_ShelterA_1_371': 2016.0, 'init_ShelterA_1_360': 2033.0, 'init_ShelterA_1_361': 2035.0, 'init_ShelterA_1_364': 2037.0, 'init_ShelterA_1_366': 2087.0, 'init_ShelterA_1_367': 2089.0, 'init_ShelterA_1_369': 2097.0, 'init_ShelterA_1_377': 2101.0, 'init_ShelterA_1_379': 2108.0, 'init_ShelterA_1_380': 2113.0, 'newveh_ShelterA_2_303_66': 2115.0, 'init_ShelterA_1_381': 2119.0, 'init_ShelterA_1_382': 2124.0, 'newveh_ShelterA_2_304_67': 2125.0, 'init_ShelterA_1_372': 2128.0, 'init_ShelterA_1_383': 2130.0, 'init_ShelterA_1_384': 2137.0, 'newveh_ShelterA_2_313_70': 2137.0, 'newveh_ShelterA_2_311_69': 2143.0, 'init_ShelterA_1_388': 2144.0, 'init_ShelterA_1_389': 2148.0, 'newveh_ShelterA_2_306_68': 2150.0, 'init_ShelterA_1_390': 2152.0, 'newveh_ShelterA_2_315_71': 2157.0, 'newveh_ShelterA_2_305_72': 2165.0, 'newveh_ShelterA_2_318_81': 2173.0, 'newveh_ShelterA_2_317_80': 2177.0, 'init_ShelterA_1_391': 2180.0, 'newveh_ShelterA_2_378_111': 2182.0, 'init_ShelterA_1_392': 2186.0, 'init_ShelterA_1_393': 2192.0, 'newveh_ShelterA_2_316_79': 2192.0, 'init_ShelterA_1_396': 2199.0, 'init_ShelterA_1_397': 2206.0, 'newveh_ShelterA_2_314_78': 2206.0, 'newveh_ShelterA_2_312_77': 2212.0, 'newveh_ShelterA_1_333_86': 2213.0, 'newveh_ShelterA_2_310_76': 2219.0, 'init_ShelterA_1_398': 2221.0, 'newveh_ShelterA_2_309_75': 2228.0, 'init_ShelterA_1_399': 2229.0, 'newveh_ShelterA_2_308_74': 2232.0, 'newveh_ShelterA_1_338_88': 2236.0, 'newveh_ShelterA_2_307_73': 2236.0, 'newveh_ShelterA_1_336_87': 2240.0, 'newveh_ShelterA_1_346_94': 2244.0, 'newveh_ShelterA_1_373_100': 2265.0, 'newveh_ShelterA_1_359_96': 2270.0, 'newveh_ShelterA_1_385_105': 2281.0, 'newveh_ShelterA_2_341_92': 2307.0, 'newveh_ShelterA_2_340_91': 2320.0, 'newveh_ShelterA_2_339_90': 2327.0, 'newveh_ShelterA_2_337_89': 2336.0, 'newveh_ShelterA_2_342_93': 2340.0, 'newveh_ShelterA_2_354_97': 2345.0, 'newveh_ShelterA_2_376_103': 2361.0, 'newveh_ShelterA_2_375_102': 2372.0, 'newveh_ShelterA_2_374_101': 2379.0, 'newveh_ShelterA_2_355_98': 2384.0, 'newveh_ShelterA_2_357_99': 2392.0, 'newveh_ShelterA_2_395_109': 2397.0, 'newveh_ShelterA_2_394_108': 2405.0, 'newveh_ShelterA_2_386_106': 2410.0, 'newveh_ShelterA_2_387_107': 2414.0}
vehicle_abandant_time_by_pedestrianID_dict:{}
walking_distance_by_pedestrianID_dict:{}
route_change_time_by_vehID_dict:{'init_ShelterA_2_36': 350.0, 'init_ShelterA_1_46': 370.0, 'init_ShelterA_1_49': 370.0, 'init_ShelterA_2_41': 370.0, 'init_ShelterA_2_51': 370.0, 'init_ShelterA_1_43': 380.0, 'init_ShelterA_1_45': 380.0, 'init_ShelterA_1_47': 380.0, 'init_ShelterA_2_57': 420.0, 'init_ShelterA_1_55': 430.0, 'init_ShelterA_1_60': 430.0, 'init_ShelterA_2_61': 430.0, 'init_ShelterA_1_58': 440.0, 'init_ShelterA_1_62': 460.0, 'init_ShelterA_1_65': 460.0, 'init_ShelterA_1_68': 460.0, 'init_ShelterA_1_69': 460.0, 'init_ShelterA_1_70': 460.0, 'init_ShelterA_1_67': 470.0, 'init_ShelterA_1_71': 470.0, 'init_ShelterA_1_66': 480.0, 'init_ShelterA_1_72': 490.0, 'init_ShelterA_1_73': 490.0, 'init_ShelterA_2_78': 520.0, 'init_ShelterA_1_83': 550.0, 'init_ShelterA_1_86': 550.0, 'init_ShelterA_1_89': 560.0, 'init_ShelterA_2_98': 600.0, 'init_ShelterA_2_114': 670.0, 'init_ShelterA_1_111': 680.0, 'init_ShelterA_2_116': 680.0, 'init_ShelterA_2_122': 680.0, 'init_ShelterA_1_125': 690.0, 'init_ShelterA_1_126': 690.0, 'init_ShelterA_2_123': 690.0, 'init_ShelterA_1_124': 700.0, 'init_ShelterA_1_119': 710.0, 'init_ShelterA_1_120': 710.0, 'init_ShelterA_1_169': 720.0, 'init_ShelterA_1_170': 720.0, 'init_ShelterA_1_171': 720.0, 'init_ShelterA_1_172': 720.0, 'init_ShelterA_1_173': 720.0, 'init_ShelterA_1_174': 720.0, 'init_ShelterA_1_175': 720.0, 'init_ShelterA_1_176': 720.0, 'init_ShelterA_1_177': 720.0, 'init_ShelterA_1_178': 720.0, 'init_ShelterA_1_179': 720.0, 'init_ShelterA_1_180': 720.0, 'init_ShelterA_1_181': 720.0, 'init_ShelterA_1_183': 720.0, 'init_ShelterA_1_184': 720.0, 'init_ShelterA_1_186': 720.0, 'init_ShelterA_1_188': 720.0, 'init_ShelterA_1_127': 740.0, 'init_ShelterA_1_128': 750.0, 'init_ShelterA_2_129': 750.0, 'init_ShelterA_1_131': 760.0, 'init_ShelterA_1_132': 760.0, 'init_ShelterA_1_134': 760.0, 'init_ShelterA_1_130': 770.0, 'init_ShelterA_1_193': 770.0, 'init_ShelterA_2_141': 770.0, 'init_ShelterA_2_197': 790.0, 'init_ShelterA_1_194': 800.0, 'init_ShelterA_1_202': 800.0, 'init_ShelterA_1_203': 800.0, 'init_ShelterA_2_201': 800.0, 'init_ShelterA_1_192': 810.0, 'init_ShelterA_1_195': 810.0, 'init_ShelterA_1_199': 810.0, 'init_ShelterA_1_205': 810.0, 'init_ShelterA_1_196': 820.0, 'init_ShelterA_1_198': 820.0, 'init_ShelterA_1_200': 820.0, 'init_ShelterA_1_204': 820.0, 'init_ShelterA_1_146': 850.0, 'init_ShelterA_1_149': 850.0, 'init_ShelterA_2_211': 850.0, 'init_ShelterA_1_144': 860.0, 'init_ShelterA_1_147': 860.0, 'init_ShelterA_1_152': 860.0, 'init_ShelterA_1_148': 870.0, 'init_ShelterA_1_150': 870.0, 'init_ShelterA_1_154': 870.0, 'init_ShelterA_1_158': 870.0, 'init_ShelterA_1_143': 880.0, 'init_ShelterA_1_215': 900.0, 'init_ShelterA_1_218': 900.0, 'init_ShelterA_1_219': 900.0, 'init_ShelterA_1_220': 900.0, 'init_ShelterA_2_214': 900.0, 'init_ShelterA_2_163': 930.0, 'init_ShelterA_1_166': 940.0, 'init_ShelterA_1_161': 950.0, 'init_ShelterA_1_162': 950.0, 'init_ShelterA_1_164': 950.0, 'init_ShelterA_1_167': 950.0, 'init_ShelterA_1_185': 950.0, 'init_ShelterA_1_156': 960.0, 'init_ShelterA_1_159': 960.0, 'init_ShelterA_1_240': 970.0, 'init_ShelterA_1_241': 970.0, 'init_ShelterA_2_230': 970.0, 'init_ShelterA_2_242': 970.0, 'init_ShelterA_1_228': 980.0, 'init_ShelterA_1_229': 980.0, 'init_ShelterA_1_231': 980.0, 'init_ShelterA_1_232': 980.0, 'init_ShelterA_1_233': 980.0, 'init_ShelterA_1_244': 1010.0, 'init_ShelterA_1_210': 1040.0, 'init_ShelterA_2_253': 1060.0, 'init_ShelterA_2_259': 1060.0, 'init_ShelterA_2_264': 1070.0, 'init_ShelterA_1_256': 1080.0, 'init_ShelterA_1_257': 1080.0, 'init_ShelterA_1_258': 1080.0, 'init_ShelterA_1_260': 1080.0, 'init_ShelterA_1_261': 1080.0, 'init_ShelterA_1_263': 1080.0, 'init_ShelterA_1_268': 1150.0, 'init_ShelterA_1_269': 1150.0, 'init_ShelterA_1_270': 1150.0, 'init_ShelterA_1_271': 1150.0, 'init_ShelterA_1_272': 1150.0, 'init_ShelterA_1_273': 1150.0, 'init_ShelterA_1_274': 1150.0, 'init_ShelterA_1_275': 1150.0, 'init_ShelterA_1_276': 1150.0, 'init_ShelterA_2_221': 1150.0, 'init_ShelterA_1_222': 1160.0, 'init_ShelterA_2_226': 1170.0, 'init_ShelterA_1_234': 1180.0, 'init_ShelterA_1_235': 1180.0, 'init_ShelterA_1_236': 1180.0, 'init_ShelterA_1_237': 1180.0, 'init_ShelterA_1_238': 1180.0, 'init_ShelterA_1_223': 1210.0, 'init_ShelterA_1_224': 1210.0, 'init_ShelterA_1_227': 1210.0, 'init_ShelterA_2_245': 1250.0, 'init_ShelterA_2_246': 1250.0, 'init_ShelterA_2_247': 1250.0, 'init_ShelterA_2_248': 1250.0, 'init_ShelterA_1_255': 1270.0, 'init_ShelterA_1_251': 1310.0, 'init_ShelterA_1_281': 1310.0, 'init_ShelterA_1_303': 1310.0, 'init_ShelterA_1_304': 1310.0, 'init_ShelterA_1_306': 1320.0, 'init_ShelterA_1_311': 1320.0, 'init_ShelterA_1_313': 1320.0, 'init_ShelterA_1_315': 1320.0, 'init_ShelterA_1_305': 1330.0, 'init_ShelterA_1_307': 1330.0, 'init_ShelterA_1_308': 1330.0, 'init_ShelterA_1_309': 1330.0, 'init_ShelterA_1_310': 1330.0, 'init_ShelterA_1_312': 1330.0, 'init_ShelterA_1_314': 1330.0, 'init_ShelterA_1_316': 1330.0, 'init_ShelterA_1_317': 1330.0, 'init_ShelterA_1_318': 1330.0, 'init_ShelterA_2_265': 1330.0, 'init_ShelterA_1_282': 1360.0, 'init_ShelterA_1_283': 1360.0, 'init_ShelterA_1_285': 1360.0, 'init_ShelterA_2_286': 1360.0, 'init_ShelterA_2_333': 1400.0, 'init_ShelterA_2_336': 1400.0, 'init_ShelterA_2_338': 1400.0, 'init_ShelterA_1_337': 1410.0, 'init_ShelterA_1_339': 1410.0, 'init_ShelterA_1_340': 1410.0, 'init_ShelterA_1_341': 1410.0, 'init_ShelterA_1_342': 1410.0, 'init_ShelterA_2_289': 1420.0, 'init_ShelterA_2_346': 1420.0, 'init_ShelterA_1_266': 1450.0, 'init_ShelterA_1_267': 1450.0, 'init_ShelterA_1_295': 1450.0, 'init_ShelterA_1_279': 1470.0, 'init_ShelterA_1_294': 1480.0, 'init_ShelterA_2_359': 1480.0, 'init_ShelterA_1_354': 1490.0, 'init_ShelterA_1_355': 1490.0, 'init_ShelterA_1_357': 1500.0, 'init_ShelterA_2_373': 1510.0, 'init_ShelterA_1_374': 1550.0, 'init_ShelterA_1_375': 1550.0, 'init_ShelterA_1_376': 1550.0, 'init_ShelterA_1_344': 1610.0, 'init_ShelterA_2_385': 1650.0, 'init_ShelterA_1_386': 1660.0, 'init_ShelterA_1_387': 1660.0, 'init_ShelterA_1_394': 1670.0, 'init_ShelterA_1_395': 1670.0, 'init_ShelterA_2_349': 1680.0, 'init_ShelterA_2_353': 1680.0, 'init_ShelterA_1_335': 1690.0, 'init_ShelterA_1_348': 1690.0, 'init_ShelterA_1_350': 1690.0, 'init_ShelterA_1_332': 1700.0, 'init_ShelterA_1_363': 1700.0, 'init_ShelterA_1_364': 1820.0, 'init_ShelterA_1_366': 1820.0, 'init_ShelterA_1_367': 1820.0, 'init_ShelterA_1_369': 1820.0, 'init_ShelterA_1_360': 1830.0, 'init_ShelterA_1_361': 1830.0, 'init_ShelterA_1_372': 1830.0, 'init_ShelterA_1_378': 1860.0}
pedestrian_count:0
route_changed_vehicle_count:214
route_change_event_count:214
rate_vehicle_abandonment:0.00%
wrong_way_driving_count:0
vehicle_abandonment_count:0
normalcy_bias_route_change_count:146
majority_bias_route_change_count:68
lane_changed_vehicle_count:0
info_obtained_lanechange_count:0
elapsed_time_lanechange_count:0
majority_bias_lanechange_count:0

=== Job Result ===
end=2026-07-13T01:32:48+0900
elapsed_seconds=542
exit_code=0
status=SUCCESS
