=== Job Info ===
job_name=va_s9_e1.0_v1.0_r14
host=schubert
pid=127819
scenario=9
early_rate=1.0
v2v_rate=1.0
run_id=14
config=/home/katagi/vehicle-assistant-system/scenarios/JIP/configs/config_scenario_9.toml
output_dir=/home/katagi/vehicle-assistant-system/schubert_logs/va_s9_e1.0_v1.0_r14
start=2026-07-13T02:32:24+0900
python_version=Python 3.12.3
sumo_version=Eclipse SUMO sumo Version v1_23_1+0435-630512a

=== Command ===
cd /home/katagi/vehicle-assistant-system/schubert_logs/va_s9_e1.0_v1.0_r14
PYTHONPATH=/home/katagi/vehicle-assistant-system:/home/katagi/tmp/sumo/tools:/home/katagi/local/sumo/tools:/home/katagi/tmp/sumo/tools:/home/katagi/local/sumo/tools:/home/katagi/tmp/sumo/tools:/home/katagi/local/sumo/tools: python3 -W ignore::UserWarning -m scenarios.JIP.1-1-4.simulation.runner_simulator --nogui /home/katagi/vehicle-assistant-system/scenarios/JIP/configs/config_scenario_9.toml 1.0 1.0
simulation_pid=127839
Step #0.00 (0ms ?*RT. ?UPS, TraCI: 336ms, vehicles TOT 1 ACT 1 BUF 0)                     Step #100.00 (1ms ~= 1000.00*RT, ~26000.00UPS, TraCI: 17ms, vehicles TOT 26 ACT 26 BUF 0) Step #200.00 (1ms ~= 1000.00*RT, ~51000.00UPS, TraCI: 36ms, vehicles TOT 51 ACT 51 BUF 0) Step #300.00 (0ms ?*RT. ?UPS, TraCI: 53ms, vehicles TOT 77 ACT 77 BUF 0)                  Step #400.00 (1ms ~= 1000.00*RT, ~104000.00UPS, TraCI: 66ms, vehicles TOT 104 ACT 104 BUF Step #500.00 (0ms ?*RT. ?UPS, TraCI: 1857ms, vehicles TOT 131 ACT 131 BUF 0)              Step #600.00 (0ms ?*RT. ?UPS, TraCI: 1603ms, vehicles TOT 158 ACT 158 BUF 0)              Step #700.00 (1ms ~= 1000.00*RT, ~185000.00UPS, TraCI: 796ms, vehicles TOT 185 ACT 185 BUFStep #800.00 (1ms ~= 1000.00*RT, ~187000.00UPS, TraCI: 1319ms, vehicles TOT 209 ACT 187 BUStep #900.00 (1ms ~= 1000.00*RT, ~213000.00UPS, TraCI: 1986ms, vehicles TOT 241 ACT 213 BUStep #1000.00 (1ms ~= 1000.00*RT, ~232000.00UPS, TraCI: 921ms, vehicles TOT 276 ACT 232 BUStep #1100.00 (0ms ?*RT. ?UPS, TraCI: 1327ms, vehicles TOT 304 ACT 253 BUF 51)            Step #1200.00 (1ms ~= 1000.00*RT, ~276000.00UPS, TraCI: 2271ms, vehicles TOT 333 ACT 276 BStep #1300.00 (1ms ~= 1000.00*RT, ~296000.00UPS, TraCI: 1927ms, vehicles TOT 357 ACT 296 BStep #1400.00 (1ms ~= 1000.00*RT, ~310000.00UPS, TraCI: 1499ms, vehicles TOT 378 ACT 310 BStep #1500.00 (0ms ?*RT. ?UPS, TraCI: 2779ms, vehicles TOT 409 ACT 340 BUF 60)            Step #1600.00 (1ms ~= 1000.00*RT, ~355000.00UPS, TraCI: 2747ms, vehicles TOT 441 ACT 355 BStep #1700.00 (1ms ~= 1000.00*RT, ~377000.00UPS, TraCI: 2089ms, vehicles TOT 473 ACT 377 BStep #1800.00 (1ms ~= 1000.00*RT, ~400000.00UPS, TraCI: 2052ms, vehicles TOT 499 ACT 400 BStep #1900.00 (1ms ~= 1000.00*RT, ~400000.00UPS, TraCI: 1420ms, vehicles TOT 500 ACT 400 BStep #2000.00 (0ms ?*RT. ?UPS, TraCI: 1136ms, vehicles TOT 500 ACT 400 BUF 0)             Step #2100.00 (0ms ?*RT. ?UPS, TraCI: 660ms, vehicles TOT 500 ACT 400 BUF 0)              Step #2200.00 (0ms ?*RT. ?UPS, TraCI: 101ms, vehicles TOT 500 ACT 400 BUF 0)              Step #2300.00 (0ms ?*RT. ?UPS, TraCI: 93ms, vehicles TOT 500 ACT 400 BUF 0)               Step #2400.00 (0ms ?*RT. ?UPS, TraCI: 93ms, vehicles TOT 500 ACT 400 BUF 0)               Step #2500.00 (0ms ?*RT. ?UPS, TraCI: 78ms, vehicles TOT 500 ACT 400 BUF 0)               Step #2600.00 (0ms ?*RT. ?UPS, TraCI: 77ms, vehicles TOT 500 ACT 400 BUF 0)               Step #2700.00 (1ms ~= 1000.00*RT, ~400000.00UPS, TraCI: 75ms, vehicles TOT 500 ACT 400 BUFStep #2800.00 (0ms ?*RT. ?UPS, TraCI: 77ms, vehicles TOT 500 ACT 400 BUF 0)               Step #2900.00 (0ms ?*RT. ?UPS, TraCI: 77ms, vehicles TOT 500 ACT 400 BUF 0)               Step #3000.00 (0ms ?*RT. ?UPS, TraCI: 78ms, vehicles TOT 500 ACT 400 BUF 0)               
 Retrying in 1 seconds
出現数: {'A1': 362, 'A2': 38}
割合:
  Total: 400
  A1: 362 (90.50%)
  A2: 38 (9.50%)
  B1: 0 (0.00%)
  B2: 0 (0.00%)
mean elapsed_time: 539.3075
OK all vehs arrived 
平均渋滞継続時間: 465.20秒
OK all vehicle abandonment were detected
294
106
===== Simlation Result Summary =====
avg_congestion_duration: 465.20 
arrival_time_by_vehID_dict:{'init_ShelterA_1_0': 193.0, 'init_ShelterA_1_1': 220.0, 'init_ShelterA_1_2': 224.0, 'init_ShelterA_1_3': 237.0, 'init_ShelterA_1_4': 242.0, 'init_ShelterA_1_5': 284.0, 'init_ShelterA_1_6': 292.0, 'init_ShelterA_1_7': 296.0, 'init_ShelterA_1_8': 301.0, 'init_ShelterA_1_9': 306.0, 'init_ShelterA_1_10': 314.0, 'init_ShelterA_1_11': 319.0, 'init_ShelterA_1_13': 325.0, 'init_ShelterA_1_14': 331.0, 'init_ShelterA_1_15': 337.0, 'init_ShelterA_1_16': 344.0, 'init_ShelterA_1_17': 351.0, 'init_ShelterA_1_18': 358.0, 'init_ShelterA_1_19': 362.0, 'init_ShelterA_1_20': 367.0, 'init_ShelterA_1_22': 377.0, 'init_ShelterA_1_23': 384.0, 'init_ShelterA_1_24': 389.0, 'init_ShelterA_1_25': 395.0, 'init_ShelterA_1_26': 402.0, 'init_ShelterA_1_27': 409.0, 'init_ShelterA_1_28': 417.0, 'init_ShelterA_2_12': 422.0, 'init_ShelterA_1_29': 426.0, 'init_ShelterA_1_30': 435.0, 'init_ShelterA_1_31': 444.0, 'init_ShelterA_1_32': 453.0, 'init_ShelterA_1_33': 463.0, 'init_ShelterA_1_34': 473.0, 'init_ShelterA_2_21': 480.0, 'init_ShelterA_1_35': 482.0, 'init_ShelterA_1_36': 492.0, 'init_ShelterA_1_37': 502.0, 'init_ShelterA_1_38': 511.0, 'init_ShelterA_1_39': 521.0, 'init_ShelterA_1_40': 531.0, 'init_ShelterA_1_41': 540.0, 'init_ShelterA_1_42': 550.0, 'init_ShelterA_1_43': 559.0, 'init_ShelterA_1_44': 569.0, 'init_ShelterA_1_45': 579.0, 'init_ShelterA_1_46': 589.0, 'init_ShelterA_1_47': 598.0, 'init_ShelterA_1_48': 608.0, 'init_ShelterA_1_49': 617.0, 'init_ShelterA_1_50': 627.0, 'init_ShelterA_1_51': 636.0, 'init_ShelterA_1_52': 646.0, 'init_ShelterA_1_61': 647.0, 'init_ShelterA_1_53': 655.0, 'init_ShelterA_1_54': 665.0, 'init_ShelterA_1_63': 668.0, 'init_ShelterA_1_64': 670.0, 'init_ShelterA_1_55': 674.0, 'init_ShelterA_1_66': 674.0, 'init_ShelterA_1_67': 676.0, 'init_ShelterA_1_68': 680.0, 'init_ShelterA_1_69': 682.0, 'init_ShelterA_1_56': 684.0, 'init_ShelterA_1_70': 685.0, 'init_ShelterA_1_71': 688.0, 'init_ShelterA_1_57': 693.0, 'init_ShelterA_1_58': 703.0, 'init_ShelterA_1_59': 712.0, 'init_ShelterA_1_60': 722.0, 'init_ShelterA_1_62': 731.0, 'init_ShelterA_2_65': 733.0, 'init_ShelterA_2_72': 735.0, 'init_ShelterA_1_74': 746.0, 'init_ShelterA_1_73': 748.0, 'init_ShelterA_1_77': 753.0, 'init_ShelterA_1_75': 755.0, 'init_ShelterA_1_84': 757.0, 'init_ShelterA_1_85': 763.0, 'init_ShelterA_1_76': 765.0, 'init_ShelterA_1_86': 768.0, 'init_ShelterA_1_87': 770.0, 'init_ShelterA_1_78': 775.0, 'init_ShelterA_1_79': 784.0, 'init_ShelterA_1_88': 793.0, 'init_ShelterA_1_80': 794.0, 'init_ShelterA_2_81': 796.0, 'init_ShelterA_1_82': 807.0, 'init_ShelterA_2_83': 809.0, 'init_ShelterA_1_89': 817.0, 'init_ShelterA_1_90': 819.0, 'init_ShelterA_1_93': 823.0, 'init_ShelterA_1_102': 829.0, 'init_ShelterA_1_91': 831.0, 'init_ShelterA_1_108': 834.0, 'init_ShelterA_2_111': 836.0, 'init_ShelterA_1_115': 841.0, 'init_ShelterA_1_92': 847.0, 'init_ShelterA_1_94': 849.0, 'init_ShelterA_1_95': 852.0, 'init_ShelterA_1_119': 853.0, 'init_ShelterA_1_96': 855.0, 'init_ShelterA_2_120': 855.0, 'init_ShelterA_2_122': 857.0, 'init_ShelterA_1_97': 858.0, 'init_ShelterA_1_98': 861.0, 'init_ShelterA_1_99': 864.0, 'init_ShelterA_1_100': 866.0, 'init_ShelterA_1_101': 870.0, 'init_ShelterA_1_103': 872.0, 'init_ShelterA_1_104': 875.0, 'init_ShelterA_1_105': 878.0, 'init_ShelterA_1_106': 881.0, 'init_ShelterA_2_124': 896.0, 'init_ShelterA_2_129': 909.0, 'init_ShelterA_1_107': 916.0, 'init_ShelterA_1_109': 918.0, 'init_ShelterA_1_110': 920.0, 'init_ShelterA_1_112': 923.0, 'init_ShelterA_1_113': 926.0, 'init_ShelterA_1_114': 930.0, 'init_ShelterA_1_116': 932.0, 'init_ShelterA_1_117': 934.0, 'init_ShelterA_1_132': 936.0, 'init_ShelterA_1_118': 938.0, 'init_ShelterA_2_137': 939.0, 'init_ShelterA_2_139': 941.0, 'init_ShelterA_1_121': 947.0, 'init_ShelterA_1_123': 949.0, 'init_ShelterA_1_125': 986.0, 'init_ShelterA_1_126': 991.0, 'init_ShelterA_1_127': 993.0, 'init_ShelterA_1_143': 1004.0, 'init_ShelterA_1_128': 1010.0, 'init_ShelterA_1_144': 1010.0, 'init_ShelterA_1_145': 1017.0, 'init_ShelterA_1_130': 1022.0, 'init_ShelterA_1_146': 1022.0, 'init_ShelterA_1_131': 1025.0, 'init_ShelterA_1_147': 1027.0, 'init_ShelterA_1_133': 1029.0, 'init_ShelterA_1_134': 1031.0, 'init_ShelterA_1_135': 1033.0, 'init_ShelterA_1_149': 1033.0, 'init_ShelterA_1_136': 1036.0, 'init_ShelterA_1_138': 1039.0, 'init_ShelterA_1_150': 1039.0, 'init_ShelterA_1_151': 1044.0, 'init_ShelterA_2_157': 1046.0, 'init_ShelterA_1_140': 1052.0, 'init_ShelterA_1_141': 1075.0, 'init_ShelterA_1_142': 1086.0, 'init_ShelterA_2_162': 1094.0, 'init_ShelterA_2_163': 1096.0, 'init_ShelterA_2_165': 1098.0, 'init_ShelterA_1_191': 1121.0, 'init_ShelterA_1_148': 1125.0, 'init_ShelterA_1_152': 1143.0, 'init_ShelterA_1_153': 1145.0, 'init_ShelterA_1_154': 1147.0, 'init_ShelterA_1_155': 1150.0, 'init_ShelterA_1_156': 1153.0, 'init_ShelterA_1_158': 1159.0, 'init_ShelterA_1_159': 1174.0, 'init_ShelterA_1_160': 1175.0, 'init_ShelterA_1_161': 1180.0, 'init_ShelterA_1_164': 1187.0, 'newveh_ShelterA_1_189_21': 1212.0, 'newveh_ShelterA_2_166_0': 1215.0, 'init_ShelterA_1_185': 1217.0, 'init_ShelterA_1_187': 1219.0, 'newveh_ShelterA_1_182_20': 1220.0, 'init_ShelterA_1_188': 1222.0, 'newveh_ShelterA_1_181_19': 1224.0, 'newveh_ShelterA_1_168_18': 1229.0, 'newveh_ShelterA_2_178_11': 1236.0, 'newveh_ShelterA_2_177_10': 1242.0, 'newveh_ShelterA_2_176_9': 1250.0, 'newveh_ShelterA_2_175_8': 1254.0, 'init_ShelterA_2_192': 1259.0, 'init_ShelterA_1_194': 1287.0, 'newveh_ShelterA_2_174_7': 1290.0, 'init_ShelterA_1_197': 1291.0, 'newveh_ShelterA_2_173_6': 1297.0, 'init_ShelterA_1_203': 1302.0, 'newveh_ShelterA_2_172_5': 1302.0, 'newveh_ShelterA_2_171_4': 1308.0, 'init_ShelterA_1_204': 1310.0, 'init_ShelterA_1_205': 1314.0, 'newveh_ShelterA_2_170_3': 1314.0, 'init_ShelterA_1_206': 1319.0, 'newveh_ShelterA_2_169_2': 1321.0, 'newveh_ShelterA_2_167_1': 1328.0, 'newveh_ShelterA_2_179_12': 1336.0, 'newveh_ShelterA_2_183_14': 1345.0, 'newveh_ShelterA_2_180_13': 1353.0, 'newveh_ShelterA_2_186_16': 1358.0, 'init_ShelterA_2_222': 1366.0, 'newveh_ShelterA_2_184_15': 1366.0, 'newveh_ShelterA_2_190_17': 1374.0, 'init_ShelterA_1_193': 1376.0, 'init_ShelterA_1_195': 1378.0, 'init_ShelterA_1_196': 1380.0, 'init_ShelterA_1_225': 1387.0, 'init_ShelterA_1_198': 1396.0, 'init_ShelterA_1_199': 1398.0, 'init_ShelterA_1_200': 1400.0, 'init_ShelterA_1_201': 1402.0, 'init_ShelterA_1_207': 1405.0, 'init_ShelterA_1_241': 1405.0, 'init_ShelterA_1_208': 1410.0, 'init_ShelterA_1_209': 1426.0, 'init_ShelterA_1_210': 1453.0, 'init_ShelterA_1_211': 1461.0, 'init_ShelterA_1_212': 1464.0, 'init_ShelterA_1_219': 1466.0, 'newveh_ShelterA_1_218_28': 1467.0, 'init_ShelterA_1_220': 1474.0, 'init_ShelterA_1_244': 1474.0, 'init_ShelterA_1_221': 1476.0, 'init_ShelterA_1_223': 1478.0, 'init_ShelterA_1_246': 1481.0, 'init_ShelterA_1_247': 1487.0, 'init_ShelterA_1_248': 1494.0, 'init_ShelterA_1_249': 1501.0, 'init_ShelterA_1_224': 1505.0, 'init_ShelterA_1_226': 1507.0, 'init_ShelterA_1_227': 1509.0, 'init_ShelterA_1_251': 1509.0, 'newveh_ShelterA_1_234_30': 1515.0, 'newveh_ShelterA_1_232_29': 1520.0, 'newveh_ShelterA_1_238_31': 1524.0, 'newveh_ShelterA_2_202_22': 1527.0, 'newveh_ShelterA_2_217_27': 1533.0, 'newveh_ShelterA_2_216_26': 1538.0, 'init_ShelterA_1_263': 1551.0, 'init_ShelterA_2_265': 1553.0, 'init_ShelterA_1_268': 1569.0, 'init_ShelterA_2_269': 1571.0, 'newveh_ShelterA_2_215_25': 1572.0, 'newveh_ShelterA_2_214_24': 1583.0, 'newveh_ShelterA_2_213_23': 1605.0, 'init_ShelterA_1_245': 1607.0, 'init_ShelterA_1_250': 1609.0, 'init_ShelterA_1_259': 1611.0, 'init_ShelterA_1_260': 1614.0, 'init_ShelterA_1_261': 1616.0, 'init_ShelterA_1_262': 1629.0, 'init_ShelterA_1_264': 1646.0, 'init_ShelterA_1_271': 1653.0, 'init_ShelterA_1_273': 1659.0, 'init_ShelterA_1_275': 1664.0, 'init_ShelterA_1_277': 1671.0, 'init_ShelterA_1_279': 1677.0, 'init_ShelterA_1_266': 1678.0, 'init_ShelterA_1_282': 1684.0, 'init_ShelterA_1_283': 1691.0, 'init_ShelterA_1_284': 1695.0, 'newveh_ShelterA_2_233_33': 1697.0, 'init_ShelterA_1_267': 1699.0, 'newveh_ShelterA_1_257_46': 1700.0, 'newveh_ShelterA_2_228_32': 1704.0, 'newveh_ShelterA_2_235_34': 1727.0, 'init_ShelterA_1_270': 1730.0, 'init_ShelterA_1_289': 1734.0, 'newveh_ShelterA_2_229_35': 1739.0, 'init_ShelterA_1_290': 1741.0, 'newveh_ShelterA_2_230_36': 1745.0, 'init_ShelterA_1_291': 1746.0, 'newveh_ShelterA_2_231_37': 1752.0, 'init_ShelterA_1_293': 1753.0, 'init_ShelterA_1_295': 1758.0, 'newveh_ShelterA_2_236_38': 1759.0, 'init_ShelterA_1_296': 1763.0, 'newveh_ShelterA_2_237_39': 1766.0, 'init_ShelterA_1_298': 1770.0, 'init_ShelterA_1_300': 1774.0, 'newveh_ShelterA_2_239_40': 1774.0, 'init_ShelterA_1_302': 1778.0, 'newveh_ShelterA_2_243_43': 1783.0, 'newveh_ShelterA_2_242_42': 1791.0, 'newveh_ShelterA_2_240_41': 1799.0, 'newveh_ShelterA_2_252_44': 1803.0, 'newveh_ShelterA_2_254_47': 1808.0, 'init_ShelterA_1_303': 1813.0, 'init_ShelterA_1_304': 1819.0, 'init_ShelterA_1_305': 1824.0, 'newveh_ShelterA_2_253_45': 1829.0, 'init_ShelterA_1_306': 1830.0, 'init_ShelterA_1_307': 1836.0, 'newveh_ShelterA_2_255_48': 1836.0, 'init_ShelterA_1_309': 1842.0, 'newveh_ShelterA_2_258_50': 1844.0, 'init_ShelterA_1_310': 1849.0, 'newveh_ShelterA_2_256_49': 1851.0, 'init_ShelterA_1_292': 1854.0, 'init_ShelterA_1_294': 1856.0, 'init_ShelterA_1_311': 1857.0, 'init_ShelterA_1_297': 1858.0, 'init_ShelterA_1_299': 1860.0, 'init_ShelterA_1_312': 1865.0, 'newveh_ShelterA_2_327_86': 1871.0, 'init_ShelterA_1_314': 1874.0, 'init_ShelterA_1_316': 1882.0, 'init_ShelterA_1_317': 1889.0, 'init_ShelterA_1_318': 1893.0, 'init_ShelterA_1_319': 1897.0, 'newveh_ShelterA_1_281_56': 1911.0, 'init_ShelterA_1_323': 1918.0, 'init_ShelterA_2_325': 1920.0, 'init_ShelterA_1_328': 1926.0, 'init_ShelterA_1_333': 1931.0, 'newveh_ShelterA_2_274_51': 1937.0, 'newveh_ShelterA_2_276_52': 1964.0, 'newveh_ShelterA_2_278_54': 1971.0, 'newveh_ShelterA_2_338_95': 1975.0, 'init_ShelterA_1_339': 1992.0, 'newveh_ShelterA_2_336_94': 2002.0, 'newveh_ShelterA_2_334_93': 2009.0, 'init_ShelterA_1_347': 2012.0, 'newveh_ShelterA_2_330_92': 2016.0, 'init_ShelterA_1_360': 2020.0, 'init_ShelterA_1_361': 2025.0, 'newveh_ShelterA_2_272_53': 2025.0, 'init_ShelterA_1_364': 2034.0, 'newveh_ShelterA_2_280_55': 2037.0, 'init_ShelterA_1_324': 2040.0, 'init_ShelterA_1_371': 2041.0, 'init_ShelterA_1_326': 2042.0, 'init_ShelterA_1_329': 2044.0, 'init_ShelterA_1_372': 2045.0, 'newveh_ShelterA_1_313_63': 2050.0, 'newveh_ShelterA_2_285_57': 2064.0, 'init_ShelterA_1_331': 2067.0, 'init_ShelterA_1_332': 2069.0, 'init_ShelterA_1_335': 2071.0, 'init_ShelterA_1_337': 2073.0, 'newveh_ShelterA_2_286_58': 2080.0, 'newveh_ShelterA_1_315_64': 2083.0, 'newveh_ShelterA_2_287_59': 2085.0, 'init_ShelterA_1_376': 2088.0, 'newveh_ShelterA_2_351_98': 2090.0, 'newveh_ShelterA_2_349_97': 2098.0, 'init_ShelterA_1_379': 2103.0, 'newveh_ShelterA_2_348_96': 2103.0, 'init_ShelterA_1_380': 2109.0, 'newveh_ShelterA_2_288_60': 2110.0, 'init_ShelterA_1_340': 2113.0, 'init_ShelterA_1_382': 2113.0, 'init_ShelterA_1_341': 2115.0, 'init_ShelterA_1_342': 2117.0, 'init_ShelterA_1_343': 2119.0, 'init_ShelterA_1_344': 2121.0, 'init_ShelterA_1_345': 2123.0, 'init_ShelterA_1_354': 2125.0, 'init_ShelterA_1_374': 2128.0, 'init_ShelterA_1_393': 2129.0, 'newveh_ShelterA_2_392_99': 2143.0, 'init_ShelterA_1_395': 2173.0, 'init_ShelterA_1_396': 2179.0, 'init_ShelterA_1_397': 2185.0, 'init_ShelterA_1_398': 2191.0, 'init_ShelterA_1_399': 2196.0, 'newveh_ShelterA_1_346_68': 2203.0, 'init_ShelterA_1_375': 2204.0, 'newveh_ShelterA_1_357_72': 2207.0, 'newveh_ShelterA_1_356_71': 2211.0, 'newveh_ShelterA_2_308_62': 2223.0, 'newveh_ShelterA_2_301_61': 2244.0, 'init_ShelterA_1_377': 2247.0, 'init_ShelterA_1_378': 2249.0, 'init_ShelterA_1_381': 2251.0, 'init_ShelterA_1_383': 2253.0, 'init_ShelterA_1_384': 2255.0, 'init_ShelterA_1_386': 2257.0, 'init_ShelterA_1_390': 2259.0, 'init_ShelterA_1_391': 2262.0, 'newveh_ShelterA_2_321_66': 2281.0, 'newveh_ShelterA_1_394_91': 2283.0, 'newveh_ShelterA_2_320_65': 2294.0, 'newveh_ShelterA_2_322_67': 2301.0, 'newveh_ShelterA_2_362_70': 2307.0, 'newveh_ShelterA_2_355_69': 2312.0, 'newveh_ShelterA_2_350_73': 2317.0, 'newveh_ShelterA_2_366_77': 2325.0, 'newveh_ShelterA_2_365_76': 2330.0, 'newveh_ShelterA_2_368_79': 2334.0, 'newveh_ShelterA_2_367_78': 2397.0, 'newveh_ShelterA_2_370_81': 2405.0, 'newveh_ShelterA_2_369_80': 2410.0, 'newveh_ShelterA_2_359_75': 2416.0, 'newveh_ShelterA_2_352_74': 2422.0, 'newveh_ShelterA_2_373_85': 2429.0, 'newveh_ShelterA_2_363_84': 2436.0, 'newveh_ShelterA_2_358_83': 2444.0, 'newveh_ShelterA_2_353_82': 2453.0, 'newveh_ShelterA_2_389_88': 2461.0, 'newveh_ShelterA_2_385_87': 2468.0, 'newveh_ShelterA_2_388_90': 2473.0, 'newveh_ShelterA_2_387_89': 2477.0}
vehicle_abandant_time_by_pedestrianID_dict:{}
walking_distance_by_pedestrianID_dict:{}
route_change_time_by_vehID_dict:{'init_ShelterA_2_65': 450.0, 'init_ShelterA_1_66': 460.0, 'init_ShelterA_1_67': 460.0, 'init_ShelterA_1_69': 460.0, 'init_ShelterA_1_61': 470.0, 'init_ShelterA_1_63': 470.0, 'init_ShelterA_1_64': 470.0, 'init_ShelterA_1_68': 470.0, 'init_ShelterA_1_70': 500.0, 'init_ShelterA_1_71': 500.0, 'init_ShelterA_1_73': 500.0, 'init_ShelterA_2_72': 500.0, 'init_ShelterA_1_77': 520.0, 'init_ShelterA_2_81': 520.0, 'init_ShelterA_1_84': 530.0, 'init_ShelterA_1_87': 530.0, 'init_ShelterA_2_83': 530.0, 'init_ShelterA_1_85': 550.0, 'init_ShelterA_1_86': 550.0, 'init_ShelterA_1_88': 590.0, 'init_ShelterA_1_90': 590.0, 'init_ShelterA_1_94': 600.0, 'init_ShelterA_1_100': 610.0, 'init_ShelterA_1_95': 610.0, 'init_ShelterA_1_99': 610.0, 'init_ShelterA_1_92': 620.0, 'init_ShelterA_1_97': 620.0, 'init_ShelterA_1_91': 640.0, 'init_ShelterA_1_96': 640.0, 'init_ShelterA_1_98': 640.0, 'init_ShelterA_1_103': 650.0, 'init_ShelterA_1_105': 650.0, 'init_ShelterA_1_101': 660.0, 'init_ShelterA_1_104': 660.0, 'init_ShelterA_1_106': 660.0, 'init_ShelterA_1_107': 660.0, 'init_ShelterA_1_109': 670.0, 'init_ShelterA_1_110': 670.0, 'init_ShelterA_1_113': 670.0, 'init_ShelterA_2_111': 670.0, 'init_ShelterA_1_112': 680.0, 'init_ShelterA_1_114': 680.0, 'init_ShelterA_1_116': 680.0, 'init_ShelterA_1_117': 680.0, 'init_ShelterA_1_118': 680.0, 'init_ShelterA_2_120': 680.0, 'init_ShelterA_1_121': 690.0, 'init_ShelterA_1_123': 690.0, 'init_ShelterA_2_122': 690.0, 'init_ShelterA_1_166': 720.0, 'init_ShelterA_1_167': 720.0, 'init_ShelterA_1_169': 720.0, 'init_ShelterA_1_170': 720.0, 'init_ShelterA_1_171': 720.0, 'init_ShelterA_1_172': 720.0, 'init_ShelterA_1_173': 720.0, 'init_ShelterA_1_174': 720.0, 'init_ShelterA_1_175': 720.0, 'init_ShelterA_1_176': 720.0, 'init_ShelterA_1_177': 720.0, 'init_ShelterA_1_178': 720.0, 'init_ShelterA_1_179': 720.0, 'init_ShelterA_1_180': 720.0, 'init_ShelterA_1_183': 720.0, 'init_ShelterA_1_184': 720.0, 'init_ShelterA_1_186': 720.0, 'init_ShelterA_1_190': 720.0, 'init_ShelterA_2_168': 720.0, 'init_ShelterA_2_181': 720.0, 'init_ShelterA_2_182': 720.0, 'init_ShelterA_2_189': 720.0, 'init_ShelterA_1_126': 740.0, 'init_ShelterA_2_124': 740.0, 'init_ShelterA_1_127': 750.0, 'init_ShelterA_1_128': 750.0, 'init_ShelterA_2_129': 750.0, 'init_ShelterA_1_125': 760.0, 'init_ShelterA_1_130': 760.0, 'init_ShelterA_1_131': 760.0, 'init_ShelterA_1_133': 760.0, 'init_ShelterA_1_134': 770.0, 'init_ShelterA_1_136': 770.0, 'init_ShelterA_1_138': 770.0, 'init_ShelterA_2_137': 770.0, 'init_ShelterA_2_139': 770.0, 'init_ShelterA_1_140': 780.0, 'init_ShelterA_1_135': 790.0, 'init_ShelterA_1_141': 790.0, 'init_ShelterA_1_142': 830.0, 'init_ShelterA_2_157': 860.0, 'init_ShelterA_1_152': 870.0, 'init_ShelterA_1_153': 870.0, 'init_ShelterA_1_158': 870.0, 'init_ShelterA_1_148': 880.0, 'init_ShelterA_1_154': 880.0, 'init_ShelterA_1_155': 880.0, 'init_ShelterA_1_156': 880.0, 'init_ShelterA_1_202': 900.0, 'init_ShelterA_1_213': 900.0, 'init_ShelterA_1_214': 900.0, 'init_ShelterA_1_215': 900.0, 'init_ShelterA_1_216': 900.0, 'init_ShelterA_1_217': 900.0, 'init_ShelterA_1_160': 910.0, 'init_ShelterA_2_218': 910.0, 'init_ShelterA_2_163': 920.0, 'init_ShelterA_1_187': 930.0, 'init_ShelterA_2_162': 930.0, 'init_ShelterA_2_165': 930.0, 'init_ShelterA_1_164': 940.0, 'init_ShelterA_1_185': 940.0, 'init_ShelterA_1_188': 940.0, 'init_ShelterA_1_159': 950.0, 'init_ShelterA_1_161': 950.0, 'init_ShelterA_2_232': 950.0, 'init_ShelterA_2_234': 950.0, 'init_ShelterA_2_238': 960.0, 'init_ShelterA_1_228': 980.0, 'init_ShelterA_1_233': 980.0, 'init_ShelterA_1_235': 980.0, 'init_ShelterA_1_229': 990.0, 'init_ShelterA_1_230': 990.0, 'init_ShelterA_1_231': 990.0, 'init_ShelterA_1_236': 990.0, 'init_ShelterA_1_237': 990.0, 'init_ShelterA_1_239': 990.0, 'init_ShelterA_1_240': 990.0, 'init_ShelterA_1_242': 990.0, 'init_ShelterA_1_243': 990.0, 'init_ShelterA_2_192': 1030.0, 'init_ShelterA_1_193': 1040.0, 'init_ShelterA_1_252': 1050.0, 'init_ShelterA_1_253': 1050.0, 'init_ShelterA_2_257': 1050.0, 'init_ShelterA_1_254': 1060.0, 'init_ShelterA_1_255': 1060.0, 'init_ShelterA_1_256': 1060.0, 'init_ShelterA_1_258': 1060.0, 'init_ShelterA_1_195': 1070.0, 'init_ShelterA_1_196': 1070.0, 'init_ShelterA_1_198': 1090.0, 'init_ShelterA_1_274': 1150.0, 'init_ShelterA_1_276': 1150.0, 'init_ShelterA_1_272': 1160.0, 'init_ShelterA_1_278': 1160.0, 'init_ShelterA_1_280': 1160.0, 'init_ShelterA_2_222': 1170.0, 'init_ShelterA_2_281': 1170.0, 'init_ShelterA_1_221': 1180.0, 'init_ShelterA_1_212': 1200.0, 'init_ShelterA_1_219': 1200.0, 'init_ShelterA_1_220': 1200.0, 'init_ShelterA_1_223': 1200.0, 'init_ShelterA_1_224': 1200.0, 'init_ShelterA_1_226': 1200.0, 'init_ShelterA_1_227': 1200.0, 'init_ShelterA_1_207': 1210.0, 'init_ShelterA_1_208': 1210.0, 'init_ShelterA_1_210': 1210.0, 'init_ShelterA_1_211': 1210.0, 'init_ShelterA_1_285': 1210.0, 'init_ShelterA_1_286': 1210.0, 'init_ShelterA_1_287': 1210.0, 'init_ShelterA_1_288': 1210.0, 'init_ShelterA_1_200': 1220.0, 'init_ShelterA_1_209': 1220.0, 'init_ShelterA_1_199': 1230.0, 'init_ShelterA_1_201': 1230.0, 'init_ShelterA_2_265': 1270.0, 'init_ShelterA_1_261': 1280.0, 'init_ShelterA_1_262': 1280.0, 'init_ShelterA_1_264': 1280.0, 'init_ShelterA_1_259': 1300.0, 'init_ShelterA_1_250': 1310.0, 'init_ShelterA_1_260': 1310.0, 'init_ShelterA_1_301': 1330.0, 'init_ShelterA_1_308': 1330.0, 'init_ShelterA_2_313': 1330.0, 'init_ShelterA_2_315': 1330.0, 'init_ShelterA_2_269': 1350.0, 'init_ShelterA_1_245': 1360.0, 'init_ShelterA_1_266': 1380.0, 'init_ShelterA_1_267': 1380.0, 'init_ShelterA_1_270': 1380.0, 'init_ShelterA_1_320': 1400.0, 'init_ShelterA_1_321': 1400.0, 'init_ShelterA_1_322': 1400.0, 'init_ShelterA_2_346': 1500.0, 'init_ShelterA_1_355': 1550.0, 'init_ShelterA_1_362': 1550.0, 'init_ShelterA_2_356': 1550.0, 'init_ShelterA_2_357': 1550.0, 'init_ShelterA_1_350': 1560.0, 'init_ShelterA_1_352': 1560.0, 'init_ShelterA_1_359': 1560.0, 'init_ShelterA_1_365': 1560.0, 'init_ShelterA_1_366': 1560.0, 'init_ShelterA_1_367': 1570.0, 'init_ShelterA_1_368': 1570.0, 'init_ShelterA_1_369': 1570.0, 'init_ShelterA_1_370': 1570.0, 'init_ShelterA_1_353': 1580.0, 'init_ShelterA_1_358': 1580.0, 'init_ShelterA_1_363': 1580.0, 'init_ShelterA_1_373': 1580.0, 'init_ShelterA_1_327': 1610.0, 'init_ShelterA_2_325': 1610.0, 'init_ShelterA_1_299': 1640.0, 'init_ShelterA_1_331': 1640.0, 'init_ShelterA_1_332': 1640.0, 'init_ShelterA_1_335': 1640.0, 'init_ShelterA_1_294': 1650.0, 'init_ShelterA_1_337': 1650.0, 'init_ShelterA_1_340': 1650.0, 'init_ShelterA_1_385': 1650.0, 'init_ShelterA_1_389': 1650.0, 'init_ShelterA_1_292': 1660.0, 'init_ShelterA_1_297': 1660.0, 'init_ShelterA_1_329': 1660.0, 'init_ShelterA_1_387': 1660.0, 'init_ShelterA_1_388': 1660.0, 'init_ShelterA_2_394': 1660.0, 'init_ShelterA_1_326': 1690.0, 'init_ShelterA_1_330': 1690.0, 'init_ShelterA_1_334': 1690.0, 'init_ShelterA_1_336': 1690.0, 'init_ShelterA_1_338': 1690.0, 'init_ShelterA_1_324': 1700.0, 'init_ShelterA_1_341': 1700.0, 'init_ShelterA_1_354': 1730.0, 'init_ShelterA_1_344': 1780.0, 'init_ShelterA_1_345': 1780.0, 'init_ShelterA_1_348': 1780.0, 'init_ShelterA_1_349': 1780.0, 'init_ShelterA_1_351': 1780.0, 'init_ShelterA_1_343': 1790.0, 'init_ShelterA_1_342': 1800.0, 'init_ShelterA_1_381': 1820.0, 'init_ShelterA_1_383': 1820.0, 'init_ShelterA_1_384': 1820.0, 'init_ShelterA_1_386': 1820.0, 'init_ShelterA_1_390': 1820.0, 'init_ShelterA_1_391': 1820.0, 'init_ShelterA_1_375': 1870.0, 'init_ShelterA_1_377': 1870.0, 'init_ShelterA_1_378': 1870.0, 'init_ShelterA_1_392': 1870.0, 'init_ShelterA_1_374': 1880.0}
pedestrian_count:0
route_changed_vehicle_count:248
route_change_event_count:248
rate_vehicle_abandonment:0.00%
wrong_way_driving_count:0
vehicle_abandonment_count:0
normalcy_bias_route_change_count:126
majority_bias_route_change_count:122
lane_changed_vehicle_count:0
info_obtained_lanechange_count:0
elapsed_time_lanechange_count:0
majority_bias_lanechange_count:0

=== Job Result ===
end=2026-07-13T02:40:09+0900
elapsed_seconds=465
exit_code=0
status=SUCCESS
