=== Job Info ===
job_name=va_s6_e1.0_v1.0_r28
host=schubert
pid=120141
scenario=6
early_rate=1.0
v2v_rate=1.0
run_id=28
config=/home/katagi/vehicle-assistant-system/scenarios/JIP/configs/config_scenario_6.toml
output_dir=/home/katagi/vehicle-assistant-system/schubert_logs/va_s6_e1.0_v1.0_r28
start=2026-07-13T01:56:39+0900
python_version=Python 3.12.3
sumo_version=Eclipse SUMO sumo Version v1_23_1+0435-630512a

=== Command ===
cd /home/katagi/vehicle-assistant-system/schubert_logs/va_s6_e1.0_v1.0_r28
PYTHONPATH=/home/katagi/vehicle-assistant-system:/home/katagi/tmp/sumo/tools:/home/katagi/local/sumo/tools:/home/katagi/tmp/sumo/tools:/home/katagi/local/sumo/tools:/home/katagi/tmp/sumo/tools:/home/katagi/local/sumo/tools: python3 -W ignore::UserWarning -m scenarios.JIP.1-1-4.simulation.runner_simulator --nogui /home/katagi/vehicle-assistant-system/scenarios/JIP/configs/config_scenario_6.toml 1.0 1.0
simulation_pid=120161
Step #0.00 (0ms ?*RT. ?UPS, TraCI: 339ms, vehicles TOT 1 ACT 1 BUF 0)                     Step #100.00 (0ms ?*RT. ?UPS, TraCI: 18ms, vehicles TOT 26 ACT 26 BUF 0)                  Step #200.00 (0ms ?*RT. ?UPS, TraCI: 37ms, vehicles TOT 51 ACT 51 BUF 0)                  Step #300.00 (0ms ?*RT. ?UPS, TraCI: 54ms, vehicles TOT 77 ACT 77 BUF 0)                  Step #400.00 (0ms ?*RT. ?UPS, TraCI: 1523ms, vehicles TOT 105 ACT 104 BUF 0)              Step #500.00 (0ms ?*RT. ?UPS, TraCI: 984ms, vehicles TOT 132 ACT 131 BUF 0)               Step #600.00 (1ms ~= 1000.00*RT, ~158000.00UPS, TraCI: 906ms, vehicles TOT 159 ACT 158 BUFStep #700.00 (1ms ~= 1000.00*RT, ~186000.00UPS, TraCI: 184ms, vehicles TOT 187 ACT 186 BUFStep #800.00 (1ms ~= 1000.00*RT, ~210000.00UPS, TraCI: 149ms, vehicles TOT 211 ACT 210 BUFStep #900.00 (1ms ~= 1000.00*RT, ~233000.00UPS, TraCI: 1370ms, vehicles TOT 234 ACT 233 BUStep #1000.00 (0ms ?*RT. ?UPS, TraCI: 1687ms, vehicles TOT 258 ACT 228 BUF 46)            Step #1100.00 (1ms ~= 1000.00*RT, ~255000.00UPS, TraCI: 1446ms, vehicles TOT 287 ACT 255 BStep #1200.00 (1ms ~= 1000.00*RT, ~277000.00UPS, TraCI: 1117ms, vehicles TOT 309 ACT 277 BStep #1300.00 (1ms ~= 1000.00*RT, ~299000.00UPS, TraCI: 740ms, vehicles TOT 340 ACT 299 BUStep #1400.00 (1ms ~= 1000.00*RT, ~322000.00UPS, TraCI: 2303ms, vehicles TOT 377 ACT 322 BStep #1500.00 (1ms ~= 1000.00*RT, ~331000.00UPS, TraCI: 1302ms, vehicles TOT 395 ACT 331 BStep #1600.00 (1ms ~= 1000.00*RT, ~357000.00UPS, TraCI: 1058ms, vehicles TOT 432 ACT 357 BStep #1700.00 (1ms ~= 1000.00*RT, ~378000.00UPS, TraCI: 1297ms, vehicles TOT 463 ACT 378 BStep #1800.00 (1ms ~= 1000.00*RT, ~400000.00UPS, TraCI: 1005ms, vehicles TOT 487 ACT 400 BStep #1900.00 (1ms ~= 1000.00*RT, ~400000.00UPS, TraCI: 510ms, vehicles TOT 489 ACT 400 BUStep #2000.00 (1ms ~= 1000.00*RT, ~400000.00UPS, TraCI: 196ms, vehicles TOT 489 ACT 400 BUStep #2100.00 (0ms ?*RT. ?UPS, TraCI: 110ms, vehicles TOT 489 ACT 400 BUF 0)              Step #2200.00 (0ms ?*RT. ?UPS, TraCI: 100ms, vehicles TOT 489 ACT 400 BUF 0)              Step #2300.00 (1ms ~= 1000.00*RT, ~400000.00UPS, TraCI: 88ms, vehicles TOT 489 ACT 400 BUFStep #2400.00 (0ms ?*RT. ?UPS, TraCI: 77ms, vehicles TOT 489 ACT 400 BUF 0)               Step #2500.00 (1ms ~= 1000.00*RT, ~400000.00UPS, TraCI: 77ms, vehicles TOT 489 ACT 400 BUFStep #2600.00 (1ms ~= 1000.00*RT, ~400000.00UPS, TraCI: 77ms, vehicles TOT 489 ACT 400 BUFStep #2700.00 (0ms ?*RT. ?UPS, TraCI: 76ms, vehicles TOT 489 ACT 400 BUF 0)               Step #2800.00 (0ms ?*RT. ?UPS, TraCI: 78ms, vehicles TOT 489 ACT 400 BUF 0)               Step #2900.00 (1ms ~= 1000.00*RT, ~400000.00UPS, TraCI: 77ms, vehicles TOT 489 ACT 400 BUFStep #3000.00 (0ms ?*RT. ?UPS, TraCI: 75ms, vehicles TOT 489 ACT 400 BUF 0)               
 Retrying in 1 seconds
出現数: {'A1': 350, 'A2': 50}
割合:
  Total: 400
  A1: 350 (87.50%)
  A2: 50 (12.50%)
  B1: 0 (0.00%)
  B2: 0 (0.00%)
mean elapsed_time: 537.8875
OK all vehs arrived 
平均渋滞継続時間: 421.92秒
OK all vehicle abandonment were detected
303
97
===== Simlation Result Summary =====
avg_congestion_duration: 421.92 
arrival_time_by_vehID_dict:{'init_ShelterA_1_0': 203.0, 'init_ShelterA_1_1': 214.0, 'init_ShelterA_1_2': 220.0, 'init_ShelterA_1_3': 225.0, 'init_ShelterA_1_5': 232.0, 'init_ShelterA_1_6': 237.0, 'init_ShelterA_1_7': 241.0, 'init_ShelterA_1_9': 287.0, 'init_ShelterA_1_10': 294.0, 'init_ShelterA_1_12': 299.0, 'init_ShelterA_1_13': 305.0, 'init_ShelterA_1_14': 311.0, 'init_ShelterA_1_15': 317.0, 'init_ShelterA_2_4': 323.0, 'init_ShelterA_1_16': 324.0, 'init_ShelterA_1_17': 332.0, 'init_ShelterA_1_18': 340.0, 'init_ShelterA_1_19': 349.0, 'init_ShelterA_1_20': 359.0, 'init_ShelterA_1_21': 367.0, 'init_ShelterA_2_8': 371.0, 'init_ShelterA_1_22': 373.0, 'init_ShelterA_1_23': 377.0, 'init_ShelterA_1_24': 382.0, 'init_ShelterA_2_11': 388.0, 'init_ShelterA_1_25': 395.0, 'init_ShelterA_1_26': 402.0, 'init_ShelterA_1_27': 407.0, 'init_ShelterA_1_28': 413.0, 'init_ShelterA_1_29': 419.0, 'init_ShelterA_1_31': 426.0, 'init_ShelterA_1_32': 433.0, 'init_ShelterA_1_33': 440.0, 'init_ShelterA_1_34': 449.0, 'init_ShelterA_1_36': 457.0, 'init_ShelterA_1_37': 466.0, 'init_ShelterA_1_38': 476.0, 'init_ShelterA_1_39': 485.0, 'init_ShelterA_1_40': 495.0, 'init_ShelterA_1_41': 505.0, 'init_ShelterA_2_35': 511.0, 'newveh_ShelterA_1_30_0': 515.0, 'init_ShelterA_2_46': 517.0, 'init_ShelterA_2_47': 520.0, 'init_ShelterA_1_48': 528.0, 'init_ShelterA_1_50': 533.0, 'init_ShelterA_1_58': 537.0, 'init_ShelterA_1_42': 550.0, 'init_ShelterA_2_68': 567.0, 'init_ShelterA_1_43': 572.0, 'init_ShelterA_1_44': 574.0, 'init_ShelterA_1_45': 577.0, 'init_ShelterA_1_49': 580.0, 'init_ShelterA_1_51': 583.0, 'init_ShelterA_1_70': 585.0, 'init_ShelterA_1_52': 587.0, 'init_ShelterA_2_74': 587.0, 'init_ShelterA_1_53': 589.0, 'init_ShelterA_2_75': 589.0, 'init_ShelterA_1_54': 592.0, 'init_ShelterA_2_76': 592.0, 'init_ShelterA_1_55': 595.0, 'init_ShelterA_1_56': 598.0, 'init_ShelterA_1_57': 601.0, 'init_ShelterA_1_59': 634.0, 'init_ShelterA_1_60': 637.0, 'init_ShelterA_1_78': 646.0, 'init_ShelterA_1_61': 647.0, 'init_ShelterA_1_80': 651.0, 'init_ShelterA_2_87': 653.0, 'init_ShelterA_1_62': 654.0, 'init_ShelterA_1_63': 656.0, 'init_ShelterA_1_64': 659.0, 'init_ShelterA_1_65': 662.0, 'init_ShelterA_1_89': 667.0, 'init_ShelterA_1_66': 671.0, 'init_ShelterA_1_67': 673.0, 'init_ShelterA_1_69': 676.0, 'init_ShelterA_1_71': 679.0, 'init_ShelterA_1_92': 680.0, 'init_ShelterA_1_72': 681.0, 'init_ShelterA_1_73': 684.0, 'init_ShelterA_2_94': 721.0, 'init_ShelterA_1_77': 727.0, 'init_ShelterA_1_79': 758.0, 'init_ShelterA_1_81': 760.0, 'init_ShelterA_2_107': 761.0, 'init_ShelterA_1_82': 762.0, 'init_ShelterA_2_109': 763.0, 'init_ShelterA_1_83': 765.0, 'init_ShelterA_1_84': 768.0, 'init_ShelterA_1_85': 771.0, 'init_ShelterA_1_86': 774.0, 'init_ShelterA_1_88': 779.0, 'init_ShelterA_1_90': 781.0, 'init_ShelterA_1_91': 791.0, 'init_ShelterA_1_93': 793.0, 'init_ShelterA_1_95': 824.0, 'init_ShelterA_2_116': 832.0, 'init_ShelterA_1_96': 833.0, 'init_ShelterA_2_118': 834.0, 'init_ShelterA_1_97': 835.0, 'init_ShelterA_1_98': 837.0, 'init_ShelterA_1_99': 841.0, 'init_ShelterA_1_100': 843.0, 'init_ShelterA_1_101': 845.0, 'init_ShelterA_1_102': 848.0, 'init_ShelterA_1_103': 851.0, 'init_ShelterA_1_104': 855.0, 'init_ShelterA_1_105': 869.0, 'init_ShelterA_1_106': 871.0, 'init_ShelterA_1_108': 873.0, 'init_ShelterA_1_110': 896.0, 'init_ShelterA_1_111': 898.0, 'init_ShelterA_1_112': 913.0, 'init_ShelterA_1_113': 926.0, 'init_ShelterA_1_114': 930.0, 'init_ShelterA_1_115': 935.0, 'init_ShelterA_1_117': 937.0, 'init_ShelterA_1_119': 939.0, 'init_ShelterA_1_120': 942.0, 'init_ShelterA_1_141': 943.0, 'init_ShelterA_1_121': 944.0, 'init_ShelterA_1_122': 947.0, 'init_ShelterA_1_123': 950.0, 'init_ShelterA_1_124': 953.0, 'init_ShelterA_1_125': 956.0, 'init_ShelterA_1_126': 959.0, 'init_ShelterA_1_127': 994.0, 'init_ShelterA_1_128': 997.0, 'init_ShelterA_2_144': 998.0, 'init_ShelterA_1_129': 1002.0, 'init_ShelterA_1_130': 1005.0, 'init_ShelterA_1_146': 1013.0, 'init_ShelterA_2_148': 1015.0, 'init_ShelterA_1_131': 1023.0, 'init_ShelterA_1_132': 1025.0, 'init_ShelterA_1_149': 1026.0, 'init_ShelterA_1_133': 1027.0, 'init_ShelterA_1_134': 1030.0, 'init_ShelterA_1_150': 1032.0, 'init_ShelterA_1_135': 1033.0, 'init_ShelterA_1_136': 1035.0, 'init_ShelterA_2_153': 1035.0, 'init_ShelterA_2_154': 1037.0, 'init_ShelterA_1_137': 1038.0, 'init_ShelterA_1_138': 1056.0, 'init_ShelterA_1_139': 1058.0, 'init_ShelterA_1_140': 1060.0, 'init_ShelterA_1_142': 1062.0, 'init_ShelterA_1_143': 1065.0, 'init_ShelterA_2_166': 1094.0, 'init_ShelterA_1_145': 1109.0, 'init_ShelterA_1_147': 1110.0, 'init_ShelterA_1_151': 1112.0, 'init_ShelterA_1_152': 1119.0, 'init_ShelterA_1_155': 1129.0, 'init_ShelterA_1_156': 1140.0, 'init_ShelterA_1_157': 1143.0, 'init_ShelterA_1_158': 1145.0, 'init_ShelterA_1_159': 1147.0, 'init_ShelterA_1_160': 1149.0, 'init_ShelterA_2_177': 1164.0, 'init_ShelterA_1_179': 1187.0, 'init_ShelterA_1_161': 1189.0, 'init_ShelterA_2_180': 1189.0, 'init_ShelterA_1_162': 1191.0, 'init_ShelterA_2_185': 1191.0, 'init_ShelterA_1_163': 1199.0, 'init_ShelterA_1_164': 1200.0, 'init_ShelterA_1_165': 1214.0, 'init_ShelterA_1_167': 1216.0, 'init_ShelterA_1_168': 1218.0, 'init_ShelterA_1_169': 1220.0, 'init_ShelterA_1_170': 1223.0, 'init_ShelterA_1_171': 1226.0, 'init_ShelterA_1_172': 1228.0, 'init_ShelterA_1_173': 1233.0, 'init_ShelterA_1_174': 1235.0, 'init_ShelterA_1_175': 1237.0, 'init_ShelterA_1_176': 1272.0, 'init_ShelterA_1_178': 1275.0, 'init_ShelterA_1_197': 1275.0, 'init_ShelterA_1_181': 1277.0, 'init_ShelterA_1_182': 1279.0, 'init_ShelterA_1_183': 1281.0, 'init_ShelterA_1_184': 1284.0, 'init_ShelterA_1_186': 1294.0, 'init_ShelterA_1_187': 1297.0, 'init_ShelterA_2_207': 1300.0, 'init_ShelterA_2_208': 1302.0, 'init_ShelterA_1_188': 1309.0, 'init_ShelterA_1_189': 1316.0, 'init_ShelterA_1_190': 1320.0, 'init_ShelterA_1_191': 1334.0, 'init_ShelterA_1_192': 1336.0, 'init_ShelterA_1_193': 1338.0, 'init_ShelterA_1_194': 1353.0, 'init_ShelterA_1_195': 1356.0, 'init_ShelterA_2_220': 1368.0, 'init_ShelterA_1_196': 1388.0, 'init_ShelterA_1_198': 1390.0, 'init_ShelterA_1_199': 1392.0, 'init_ShelterA_1_200': 1394.0, 'init_ShelterA_1_201': 1396.0, 'init_ShelterA_1_202': 1399.0, 'init_ShelterA_1_203': 1402.0, 'init_ShelterA_1_204': 1405.0, 'init_ShelterA_1_205': 1407.0, 'init_ShelterA_1_206': 1410.0, 'init_ShelterA_1_209': 1413.0, 'init_ShelterA_1_210': 1416.0, 'init_ShelterA_1_211': 1439.0, 'init_ShelterA_1_212': 1452.0, 'init_ShelterA_1_213': 1454.0, 'init_ShelterA_1_214': 1456.0, 'init_ShelterA_1_215': 1465.0, 'init_ShelterA_1_262': 1466.0, 'init_ShelterA_1_216': 1467.0, 'init_ShelterA_1_217': 1472.0, 'init_ShelterA_1_218': 1473.0, 'init_ShelterA_1_219': 1475.0, 'init_ShelterA_1_249': 1477.0, 'init_ShelterA_1_250': 1479.0, 'init_ShelterA_1_251': 1497.0, 'init_ShelterA_1_252': 1498.0, 'init_ShelterA_1_253': 1500.0, 'init_ShelterA_1_254': 1502.0, 'init_ShelterA_1_257': 1505.0, 'newveh_ShelterA_2_266_37': 1541.0, 'init_ShelterA_1_258': 1547.0, 'init_ShelterA_1_259': 1554.0, 'init_ShelterA_1_260': 1556.0, 'newveh_ShelterA_2_221_1': 1582.0, 'init_ShelterA_1_261': 1584.0, 'init_ShelterA_1_263': 1586.0, 'init_ShelterA_1_264': 1588.0, 'init_ShelterA_1_265': 1590.0, 'newveh_ShelterA_2_222_2': 1596.0, 'newveh_ShelterA_2_223_3': 1606.0, 'newveh_ShelterA_2_224_4': 1614.0, 'newveh_ShelterA_2_225_5': 1619.0, 'newveh_ShelterA_2_226_6': 1627.0, 'newveh_ShelterA_2_227_7': 1632.0, 'newveh_ShelterA_1_241_28': 1636.0, 'newveh_ShelterA_2_228_8': 1638.0, 'newveh_ShelterA_1_255_29': 1643.0, 'newveh_ShelterA_2_270_49': 1643.0, 'newveh_ShelterA_2_269_48': 1647.0, 'newveh_ShelterA_1_256_30': 1649.0, 'init_ShelterA_1_277': 1654.0, 'newveh_ShelterA_2_229_9': 1655.0, 'init_ShelterA_2_279': 1656.0, 'newveh_ShelterA_2_230_10': 1662.0, 'newveh_ShelterA_2_231_11': 1668.0, 'newveh_ShelterA_2_232_12': 1674.0, 'newveh_ShelterA_2_233_13': 1679.0, 'newveh_ShelterA_2_234_14': 1684.0, 'newveh_ShelterA_2_235_15': 1690.0, 'newveh_ShelterA_2_236_16': 1697.0, 'newveh_ShelterA_2_237_17': 1704.0, 'newveh_ShelterA_2_238_18': 1712.0, 'newveh_ShelterA_2_239_19': 1720.0, 'newveh_ShelterA_2_240_20': 1728.0, 'newveh_ShelterA_2_242_21': 1737.0, 'newveh_ShelterA_2_243_22': 1747.0, 'newveh_ShelterA_2_244_23': 1756.0, 'newveh_ShelterA_2_246_25': 1766.0, 'newveh_ShelterA_2_245_24': 1776.0, 'newveh_ShelterA_2_268_47': 1785.0, 'newveh_ShelterA_2_282_59': 1795.0, 'newveh_ShelterA_2_276_58': 1804.0, 'newveh_ShelterA_2_247_26': 1814.0, 'init_ShelterA_1_317': 1819.0, 'init_ShelterA_2_319': 1821.0, 'init_ShelterA_1_322': 1826.0, 'newveh_ShelterA_2_248_27': 1835.0, 'init_ShelterA_1_271': 1838.0, 'init_ShelterA_1_272': 1840.0, 'init_ShelterA_1_273': 1842.0, 'init_ShelterA_1_274': 1844.0, 'init_ShelterA_1_275': 1846.0, 'init_ShelterA_1_280': 1848.0, 'init_ShelterA_1_284': 1850.0, 'init_ShelterA_1_285': 1853.0, 'init_ShelterA_1_286': 1855.0, 'newveh_ShelterA_1_281_32': 1856.0, 'init_ShelterA_1_287': 1858.0, 'init_ShelterA_1_290': 1861.0, 'init_ShelterA_1_291': 1864.0, 'init_ShelterA_1_292': 1867.0, 'newveh_ShelterA_2_267_31': 1886.0, 'init_ShelterA_1_295': 1889.0, 'init_ShelterA_1_297': 1891.0, 'init_ShelterA_1_298': 1893.0, 'init_ShelterA_1_299': 1895.0, 'init_ShelterA_1_300': 1897.0, 'init_ShelterA_1_302': 1900.0, 'init_ShelterA_1_303': 1902.0, 'init_ShelterA_1_307': 1904.0, 'init_ShelterA_1_309': 1906.0, 'init_ShelterA_1_311': 1909.0, 'init_ShelterA_1_341': 1909.0, 'init_ShelterA_1_315': 1912.0, 'init_ShelterA_1_316': 1915.0, 'newveh_ShelterA_2_313_67': 1923.0, 'newveh_ShelterA_2_310_66': 1928.0, 'newveh_ShelterA_1_293_38': 1929.0, 'newveh_ShelterA_1_294_39': 1935.0, 'newveh_ShelterA_2_308_65': 1937.0, 'newveh_ShelterA_1_296_40': 1939.0, 'newveh_ShelterA_2_334_75': 1958.0, 'init_ShelterA_1_318': 1960.0, 'init_ShelterA_1_320': 1962.0, 'init_ShelterA_1_321': 1964.0, 'init_ShelterA_1_323': 1966.0, 'init_ShelterA_1_324': 1968.0, 'init_ShelterA_1_325': 1970.0, 'init_ShelterA_1_327': 1972.0, 'init_ShelterA_1_329': 1974.0, 'init_ShelterA_1_332': 1977.0, 'init_ShelterA_1_333': 1980.0, 'init_ShelterA_1_335': 1983.0, 'init_ShelterA_1_338': 1986.0, 'newveh_ShelterA_2_357_84': 1992.0, 'newveh_ShelterA_2_355_83': 2012.0, 'init_ShelterA_1_339': 2014.0, 'newveh_ShelterA_1_306_41': 2014.0, 'init_ShelterA_1_340': 2016.0, 'init_ShelterA_1_343': 2018.0, 'newveh_ShelterA_1_312_44': 2020.0, 'newveh_ShelterA_1_314_46': 2026.0, 'newveh_ShelterA_2_278_33': 2027.0, 'init_ShelterA_1_345': 2029.0, 'newveh_ShelterA_1_304_43': 2030.0, 'newveh_ShelterA_2_283_34': 2037.0, 'init_ShelterA_1_346': 2039.0, 'newveh_ShelterA_2_289_36': 2048.0, 'newveh_ShelterA_2_288_35': 2068.0, 'init_ShelterA_1_351': 2071.0, 'init_ShelterA_1_352': 2073.0, 'init_ShelterA_1_353': 2075.0, 'init_ShelterA_1_358': 2077.0, 'newveh_ShelterA_2_354_82': 2083.0, 'init_ShelterA_1_380': 2084.0, 'init_ShelterA_1_359': 2091.0, 'init_ShelterA_1_360': 2093.0, 'init_ShelterA_1_361': 2096.0, 'init_ShelterA_1_362': 2098.0, 'init_ShelterA_1_363': 2100.0, 'init_ShelterA_1_364': 2102.0, 'init_ShelterA_1_366': 2104.0, 'init_ShelterA_1_367': 2106.0, 'newveh_ShelterA_1_336_51': 2114.0, 'newveh_ShelterA_1_337_54': 2124.0, 'newveh_ShelterA_2_301_42': 2126.0, 'init_ShelterA_1_374': 2129.0, 'newveh_ShelterA_2_305_45': 2149.0, 'init_ShelterA_1_377': 2151.0, 'init_ShelterA_1_378': 2153.0, 'newveh_ShelterA_2_376_86': 2163.0, 'newveh_ShelterA_2_375_85': 2170.0, 'newveh_ShelterA_2_389_87': 2178.0, 'newveh_ShelterA_1_344_57': 2186.0, 'newveh_ShelterA_2_397_88': 2193.0, 'newveh_ShelterA_1_365_68': 2194.0, 'init_ShelterA_1_379': 2195.0, 'init_ShelterA_1_381': 2197.0, 'init_ShelterA_1_382': 2199.0, 'init_ShelterA_1_384': 2202.0, 'newveh_ShelterA_1_356_64': 2203.0, 'init_ShelterA_1_385': 2204.0, 'init_ShelterA_1_387': 2206.0, 'init_ShelterA_1_388': 2208.0, 'init_ShelterA_1_392': 2210.0, 'newveh_ShelterA_1_391_77': 2211.0, 'init_ShelterA_1_393': 2212.0, 'newveh_ShelterA_1_390_76': 2215.0, 'newveh_ShelterA_1_368_69': 2219.0, 'newveh_ShelterA_2_330_50': 2223.0, 'init_ShelterA_1_396': 2225.0, 'newveh_ShelterA_2_342_56': 2237.0, 'init_ShelterA_1_398': 2240.0, 'init_ShelterA_1_399': 2242.0, 'newveh_ShelterA_2_326_52': 2267.0, 'newveh_ShelterA_1_394_81': 2273.0, 'newveh_ShelterA_2_347_62': 2277.0, 'newveh_ShelterA_2_349_61': 2281.0, 'newveh_ShelterA_2_348_60': 2286.0, 'newveh_ShelterA_2_328_53': 2302.0, 'newveh_ShelterA_2_331_55': 2311.0, 'newveh_ShelterA_2_350_63': 2317.0, 'newveh_ShelterA_2_383_78': 2323.0, 'newveh_ShelterA_2_373_74': 2331.0, 'newveh_ShelterA_2_372_73': 2335.0, 'newveh_ShelterA_2_371_72': 2340.0, 'newveh_ShelterA_2_370_71': 2363.0, 'newveh_ShelterA_2_369_70': 2384.0, 'newveh_ShelterA_2_386_79': 2390.0, 'newveh_ShelterA_2_395_80': 2394.0}
vehicle_abandant_time_by_pedestrianID_dict:{}
walking_distance_by_pedestrianID_dict:{}
route_change_time_by_vehID_dict:{'init_ShelterA_2_46': 350.0, 'init_ShelterA_2_47': 350.0, 'init_ShelterA_1_43': 360.0, 'init_ShelterA_1_44': 360.0, 'init_ShelterA_2_30': 360.0, 'init_ShelterA_1_42': 370.0, 'init_ShelterA_1_45': 370.0, 'init_ShelterA_1_49': 370.0, 'init_ShelterA_1_51': 370.0, 'init_ShelterA_1_52': 370.0, 'init_ShelterA_1_53': 370.0, 'init_ShelterA_1_54': 400.0, 'init_ShelterA_2_68': 400.0, 'init_ShelterA_1_56': 410.0, 'init_ShelterA_1_55': 420.0, 'init_ShelterA_1_57': 420.0, 'init_ShelterA_1_59': 420.0, 'init_ShelterA_1_61': 420.0, 'init_ShelterA_1_71': 440.0, 'init_ShelterA_1_69': 450.0, 'init_ShelterA_1_62': 460.0, 'init_ShelterA_1_63': 460.0, 'init_ShelterA_1_64': 460.0, 'init_ShelterA_1_65': 460.0, 'init_ShelterA_1_66': 460.0, 'init_ShelterA_1_67': 460.0, 'init_ShelterA_1_60': 470.0, 'init_ShelterA_2_74': 480.0, 'init_ShelterA_1_72': 490.0, 'init_ShelterA_1_73': 490.0, 'init_ShelterA_2_75': 500.0, 'init_ShelterA_2_76': 500.0, 'init_ShelterA_1_79': 510.0, 'init_ShelterA_1_81': 520.0, 'init_ShelterA_1_82': 520.0, 'init_ShelterA_1_83': 520.0, 'init_ShelterA_1_84': 520.0, 'init_ShelterA_1_85': 520.0, 'init_ShelterA_2_87': 520.0, 'init_ShelterA_1_77': 550.0, 'init_ShelterA_1_86': 550.0, 'init_ShelterA_1_88': 550.0, 'init_ShelterA_2_107': 570.0, 'init_ShelterA_1_105': 580.0, 'init_ShelterA_1_106': 580.0, 'init_ShelterA_1_90': 580.0, 'init_ShelterA_1_91': 590.0, 'init_ShelterA_1_93': 590.0, 'init_ShelterA_1_95': 600.0, 'init_ShelterA_1_96': 600.0, 'init_ShelterA_1_97': 600.0, 'init_ShelterA_1_98': 600.0, 'init_ShelterA_1_99': 600.0, 'init_ShelterA_2_94': 600.0, 'init_ShelterA_1_100': 610.0, 'init_ShelterA_1_101': 610.0, 'init_ShelterA_1_102': 610.0, 'init_ShelterA_1_104': 610.0, 'init_ShelterA_1_103': 640.0, 'init_ShelterA_1_108': 660.0, 'init_ShelterA_1_110': 670.0, 'init_ShelterA_1_111': 670.0, 'init_ShelterA_2_109': 670.0, 'init_ShelterA_1_114': 680.0, 'init_ShelterA_2_116': 680.0, 'init_ShelterA_1_112': 690.0, 'init_ShelterA_1_113': 690.0, 'init_ShelterA_1_115': 690.0, 'init_ShelterA_1_117': 690.0, 'init_ShelterA_1_119': 690.0, 'init_ShelterA_1_120': 690.0, 'init_ShelterA_1_121': 690.0, 'init_ShelterA_1_122': 690.0, 'init_ShelterA_1_124': 690.0, 'init_ShelterA_1_125': 690.0, 'init_ShelterA_2_118': 690.0, 'init_ShelterA_1_123': 700.0, 'init_ShelterA_1_126': 740.0, 'init_ShelterA_1_127': 750.0, 'init_ShelterA_1_128': 750.0, 'init_ShelterA_1_129': 750.0, 'init_ShelterA_1_130': 750.0, 'init_ShelterA_1_132': 760.0, 'init_ShelterA_1_133': 760.0, 'init_ShelterA_1_134': 760.0, 'init_ShelterA_1_131': 770.0, 'init_ShelterA_1_135': 770.0, 'init_ShelterA_1_137': 770.0, 'init_ShelterA_1_138': 770.0, 'init_ShelterA_1_139': 770.0, 'init_ShelterA_1_136': 780.0, 'init_ShelterA_1_140': 780.0, 'init_ShelterA_1_142': 780.0, 'init_ShelterA_1_143': 780.0, 'init_ShelterA_2_148': 830.0, 'init_ShelterA_1_145': 840.0, 'init_ShelterA_2_144': 840.0, 'init_ShelterA_1_147': 850.0, 'init_ShelterA_1_151': 850.0, 'init_ShelterA_2_153': 850.0, 'init_ShelterA_2_154': 850.0, 'init_ShelterA_1_152': 860.0, 'init_ShelterA_1_156': 860.0, 'init_ShelterA_1_157': 860.0, 'init_ShelterA_1_158': 860.0, 'init_ShelterA_1_159': 860.0, 'init_ShelterA_1_160': 860.0, 'init_ShelterA_1_161': 860.0, 'init_ShelterA_1_167': 900.0, 'init_ShelterA_1_168': 900.0, 'init_ShelterA_1_169': 900.0, 'init_ShelterA_1_155': 910.0, 'init_ShelterA_1_163': 920.0, 'init_ShelterA_1_165': 930.0, 'init_ShelterA_2_166': 930.0, 'init_ShelterA_1_162': 940.0, 'init_ShelterA_1_164': 940.0, 'init_ShelterA_1_170': 940.0, 'init_ShelterA_1_171': 940.0, 'init_ShelterA_1_172': 940.0, 'init_ShelterA_1_173': 940.0, 'init_ShelterA_1_174': 940.0, 'init_ShelterA_1_176': 950.0, 'init_ShelterA_1_178': 950.0, 'init_ShelterA_2_177': 950.0, 'init_ShelterA_1_221': 980.0, 'init_ShelterA_1_222': 980.0, 'init_ShelterA_1_223': 980.0, 'init_ShelterA_1_224': 980.0, 'init_ShelterA_1_225': 980.0, 'init_ShelterA_1_226': 980.0, 'init_ShelterA_1_227': 980.0, 'init_ShelterA_1_228': 980.0, 'init_ShelterA_1_229': 980.0, 'init_ShelterA_1_230': 980.0, 'init_ShelterA_1_231': 980.0, 'init_ShelterA_1_232': 980.0, 'init_ShelterA_1_233': 980.0, 'init_ShelterA_1_234': 980.0, 'init_ShelterA_1_235': 980.0, 'init_ShelterA_1_236': 980.0, 'init_ShelterA_1_237': 980.0, 'init_ShelterA_1_238': 980.0, 'init_ShelterA_1_239': 980.0, 'init_ShelterA_1_240': 980.0, 'init_ShelterA_1_242': 980.0, 'init_ShelterA_1_243': 980.0, 'init_ShelterA_1_244': 980.0, 'init_ShelterA_1_245': 980.0, 'init_ShelterA_1_246': 980.0, 'init_ShelterA_1_247': 980.0, 'init_ShelterA_1_248': 980.0, 'init_ShelterA_2_241': 980.0, 'init_ShelterA_2_180': 1000.0, 'init_ShelterA_2_255': 1000.0, 'init_ShelterA_1_175': 1010.0, 'init_ShelterA_1_181': 1010.0, 'init_ShelterA_1_184': 1010.0, 'init_ShelterA_2_185': 1010.0, 'init_ShelterA_2_256': 1010.0, 'init_ShelterA_1_182': 1020.0, 'init_ShelterA_1_183': 1020.0, 'init_ShelterA_1_186': 1020.0, 'init_ShelterA_1_187': 1020.0, 'init_ShelterA_1_188': 1020.0, 'init_ShelterA_1_189': 1020.0, 'init_ShelterA_1_190': 1020.0, 'init_ShelterA_1_192': 1030.0, 'init_ShelterA_1_195': 1030.0, 'init_ShelterA_1_194': 1040.0, 'init_ShelterA_1_267': 1070.0, 'init_ShelterA_1_191': 1090.0, 'init_ShelterA_1_198': 1100.0, 'init_ShelterA_1_200': 1100.0, 'init_ShelterA_1_201': 1100.0, 'init_ShelterA_1_203': 1100.0, 'init_ShelterA_1_196': 1110.0, 'init_ShelterA_1_199': 1110.0, 'init_ShelterA_1_202': 1110.0, 'init_ShelterA_1_205': 1110.0, 'init_ShelterA_1_206': 1110.0, 'init_ShelterA_2_207': 1110.0, 'init_ShelterA_1_193': 1120.0, 'init_ShelterA_1_204': 1120.0, 'init_ShelterA_1_209': 1120.0, 'init_ShelterA_1_210': 1120.0, 'init_ShelterA_1_211': 1120.0, 'init_ShelterA_1_212': 1120.0, 'init_ShelterA_2_208': 1120.0, 'init_ShelterA_1_214': 1160.0, 'init_ShelterA_2_220': 1160.0, 'init_ShelterA_1_215': 1170.0, 'init_ShelterA_1_218': 1170.0, 'init_ShelterA_1_219': 1170.0, 'init_ShelterA_1_249': 1170.0, 'init_ShelterA_1_250': 1170.0, 'init_ShelterA_1_213': 1180.0, 'init_ShelterA_1_251': 1180.0, 'init_ShelterA_1_253': 1180.0, 'init_ShelterA_1_257': 1180.0, 'init_ShelterA_1_252': 1190.0, 'init_ShelterA_1_254': 1190.0, 'init_ShelterA_1_258': 1190.0, 'init_ShelterA_1_259': 1190.0, 'init_ShelterA_1_217': 1200.0, 'init_ShelterA_1_260': 1210.0, 'init_ShelterA_1_261': 1210.0, 'init_ShelterA_2_279': 1210.0, 'init_ShelterA_2_281': 1220.0, 'init_ShelterA_1_278': 1230.0, 'init_ShelterA_1_283': 1240.0, 'init_ShelterA_1_288': 1240.0, 'init_ShelterA_1_289': 1240.0, 'init_ShelterA_1_263': 1250.0, 'init_ShelterA_1_264': 1250.0, 'init_ShelterA_1_266': 1250.0, 'init_ShelterA_2_293': 1250.0, 'init_ShelterA_2_294': 1250.0, 'init_ShelterA_1_216': 1270.0, 'init_ShelterA_2_296': 1280.0, 'init_ShelterA_2_306': 1310.0, 'init_ShelterA_1_301': 1320.0, 'init_ShelterA_2_304': 1320.0, 'init_ShelterA_2_312': 1320.0, 'init_ShelterA_1_305': 1330.0, 'init_ShelterA_2_314': 1330.0, 'init_ShelterA_1_265': 1360.0, 'init_ShelterA_1_268': 1360.0, 'init_ShelterA_1_269': 1360.0, 'init_ShelterA_1_270': 1360.0, 'init_ShelterA_1_330': 1390.0, 'init_ShelterA_2_336': 1390.0, 'init_ShelterA_1_284': 1400.0, 'init_ShelterA_1_286': 1400.0, 'init_ShelterA_1_287': 1400.0, 'init_ShelterA_1_326': 1400.0, 'init_ShelterA_1_328': 1400.0, 'init_ShelterA_2_337': 1400.0, 'init_ShelterA_1_280': 1410.0, 'init_ShelterA_1_331': 1410.0, 'init_ShelterA_1_342': 1410.0, 'init_ShelterA_2_344': 1420.0, 'init_ShelterA_1_272': 1430.0, 'init_ShelterA_1_273': 1430.0, 'init_ShelterA_1_274': 1430.0, 'init_ShelterA_1_275': 1430.0, 'init_ShelterA_1_271': 1440.0, 'init_ShelterA_1_276': 1440.0, 'init_ShelterA_1_282': 1440.0, 'init_ShelterA_1_291': 1450.0, 'init_ShelterA_1_348': 1450.0, 'init_ShelterA_1_349': 1450.0, 'init_ShelterA_1_347': 1470.0, 'init_ShelterA_1_350': 1470.0, 'init_ShelterA_1_311': 1480.0, 'init_ShelterA_1_315': 1480.0, 'init_ShelterA_2_356': 1520.0, 'init_ShelterA_1_298': 1530.0, 'init_ShelterA_1_299': 1530.0, 'init_ShelterA_1_300': 1530.0, 'init_ShelterA_1_303': 1530.0, 'init_ShelterA_1_308': 1530.0, 'init_ShelterA_1_310': 1530.0, 'init_ShelterA_1_313': 1530.0, 'init_ShelterA_1_316': 1530.0, 'init_ShelterA_1_285': 1540.0, 'init_ShelterA_1_290': 1540.0, 'init_ShelterA_1_297': 1540.0, 'init_ShelterA_1_292': 1560.0, 'init_ShelterA_1_295': 1560.0, 'init_ShelterA_1_302': 1560.0, 'init_ShelterA_1_309': 1560.0, 'init_ShelterA_1_320': 1560.0, 'init_ShelterA_1_321': 1560.0, 'init_ShelterA_1_323': 1560.0, 'init_ShelterA_1_332': 1570.0, 'init_ShelterA_1_333': 1570.0, 'init_ShelterA_1_335': 1570.0, 'init_ShelterA_2_365': 1570.0, 'init_ShelterA_2_368': 1570.0, 'init_ShelterA_1_329': 1580.0, 'init_ShelterA_1_318': 1590.0, 'init_ShelterA_1_369': 1590.0, 'init_ShelterA_1_370': 1590.0, 'init_ShelterA_1_371': 1590.0, 'init_ShelterA_1_372': 1590.0, 'init_ShelterA_1_373': 1590.0, 'init_ShelterA_2_319': 1590.0, 'init_ShelterA_1_324': 1600.0, 'init_ShelterA_1_325': 1610.0, 'init_ShelterA_1_327': 1610.0, 'init_ShelterA_1_334': 1610.0, 'init_ShelterA_1_307': 1630.0, 'init_ShelterA_1_345': 1640.0, 'init_ShelterA_1_343': 1650.0, 'init_ShelterA_1_352': 1650.0, 'init_ShelterA_2_390': 1650.0, 'init_ShelterA_2_391': 1650.0, 'init_ShelterA_1_383': 1660.0, 'init_ShelterA_1_386': 1660.0, 'init_ShelterA_1_395': 1660.0, 'init_ShelterA_2_394': 1660.0, 'init_ShelterA_1_346': 1700.0, 'init_ShelterA_1_354': 1700.0, 'init_ShelterA_1_355': 1700.0, 'init_ShelterA_1_357': 1700.0, 'init_ShelterA_1_359': 1730.0, 'init_ShelterA_1_340': 1740.0, 'init_ShelterA_1_338': 1750.0, 'init_ShelterA_1_339': 1750.0, 'init_ShelterA_1_360': 1770.0, 'init_ShelterA_1_353': 1780.0, 'init_ShelterA_1_361': 1780.0, 'init_ShelterA_1_362': 1780.0, 'init_ShelterA_1_364': 1780.0, 'init_ShelterA_1_366': 1780.0, 'init_ShelterA_1_363': 1790.0, 'init_ShelterA_1_367': 1790.0, 'init_ShelterA_1_375': 1790.0, 'init_ShelterA_1_376': 1790.0, 'init_ShelterA_1_351': 1810.0, 'init_ShelterA_1_358': 1820.0, 'init_ShelterA_1_381': 1820.0, 'init_ShelterA_1_396': 1830.0, 'init_ShelterA_1_377': 1840.0, 'init_ShelterA_1_378': 1840.0, 'init_ShelterA_1_374': 1850.0, 'init_ShelterA_1_379': 1850.0, 'init_ShelterA_1_384': 1850.0, 'init_ShelterA_1_382': 1860.0, 'init_ShelterA_1_387': 1860.0, 'init_ShelterA_1_388': 1860.0, 'init_ShelterA_1_392': 1860.0, 'init_ShelterA_1_393': 1860.0, 'init_ShelterA_1_385': 1870.0, 'init_ShelterA_1_389': 1870.0, 'init_ShelterA_1_397': 1880.0, 'init_ShelterA_1_399': 1900.0, 'init_ShelterA_1_398': 1930.0}
pedestrian_count:0
route_changed_vehicle_count:339
route_change_event_count:339
rate_vehicle_abandonment:0.00%
wrong_way_driving_count:0
vehicle_abandonment_count:0
normalcy_bias_route_change_count:204
majority_bias_route_change_count:135
lane_changed_vehicle_count:0
info_obtained_lanechange_count:0
elapsed_time_lanechange_count:0
majority_bias_lanechange_count:0

=== Job Result ===
end=2026-07-13T02:02:20+0900
elapsed_seconds=341
exit_code=0
status=SUCCESS
