=== Job Info ===
job_name=va_s8_e1.0_v1.0_r10
host=schubert
pid=124764
scenario=8
early_rate=1.0
v2v_rate=1.0
run_id=10
config=/home/katagi/vehicle-assistant-system/scenarios/JIP/configs/config_scenario_8.toml
output_dir=/home/katagi/vehicle-assistant-system/schubert_logs/va_s8_e1.0_v1.0_r10
start=2026-07-13T02:17:29+0900
python_version=Python 3.12.3
sumo_version=Eclipse SUMO sumo Version v1_23_1+0435-630512a

=== Command ===
cd /home/katagi/vehicle-assistant-system/schubert_logs/va_s8_e1.0_v1.0_r10
PYTHONPATH=/home/katagi/vehicle-assistant-system:/home/katagi/tmp/sumo/tools:/home/katagi/local/sumo/tools:/home/katagi/tmp/sumo/tools:/home/katagi/local/sumo/tools:/home/katagi/tmp/sumo/tools:/home/katagi/local/sumo/tools: python3 -W ignore::UserWarning -m scenarios.JIP.1-1-4.simulation.runner_simulator --nogui /home/katagi/vehicle-assistant-system/scenarios/JIP/configs/config_scenario_8.toml 1.0 1.0
simulation_pid=124784
Step #0.00 (0ms ?*RT. ?UPS, TraCI: 337ms, vehicles TOT 1 ACT 1 BUF 0)                     Step #100.00 (0ms ?*RT. ?UPS, TraCI: 18ms, vehicles TOT 26 ACT 26 BUF 0)                  Step #200.00 (0ms ?*RT. ?UPS, TraCI: 37ms, vehicles TOT 51 ACT 51 BUF 0)                  Step #300.00 (0ms ?*RT. ?UPS, TraCI: 54ms, vehicles TOT 77 ACT 77 BUF 0)                  Step #400.00 (0ms ?*RT. ?UPS, TraCI: 1993ms, vehicles TOT 104 ACT 104 BUF 0)              Step #500.00 (0ms ?*RT. ?UPS, TraCI: 1670ms, vehicles TOT 131 ACT 131 BUF 0)              Step #600.00 (1ms ~= 1000.00*RT, ~158000.00UPS, TraCI: 1440ms, vehicles TOT 158 ACT 158 BUStep #700.00 (1ms ~= 1000.00*RT, ~177000.00UPS, TraCI: 1753ms, vehicles TOT 195 ACT 177 BUStep #800.00 (1ms ~= 1000.00*RT, ~190000.00UPS, TraCI: 869ms, vehicles TOT 222 ACT 190 BUFStep #900.00 (1ms ~= 1000.00*RT, ~215000.00UPS, TraCI: 894ms, vehicles TOT 250 ACT 215 BUFStep #1000.00 (0ms ?*RT. ?UPS, TraCI: 1164ms, vehicles TOT 282 ACT 235 BUF 39)            Step #1100.00 (1ms ~= 1000.00*RT, ~256000.00UPS, TraCI: 1666ms, vehicles TOT 311 ACT 256 BStep #1200.00 (1ms ~= 1000.00*RT, ~274000.00UPS, TraCI: 1910ms, vehicles TOT 333 ACT 274 BStep #1300.00 (1ms ~= 1000.00*RT, ~299000.00UPS, TraCI: 2160ms, vehicles TOT 369 ACT 299 BStep #1400.00 (1ms ~= 1000.00*RT, ~316000.00UPS, TraCI: 2520ms, vehicles TOT 404 ACT 316 BStep #1500.00 (1ms ~= 1000.00*RT, ~335000.00UPS, TraCI: 2088ms, vehicles TOT 440 ACT 335 BStep #1600.00 (1ms ~= 1000.00*RT, ~365000.00UPS, TraCI: 2965ms, vehicles TOT 475 ACT 365 BStep #1700.00 (1ms ~= 1000.00*RT, ~378000.00UPS, TraCI: 1636ms, vehicles TOT 501 ACT 378 BStep #1800.00 (1ms ~= 1000.00*RT, ~400000.00UPS, TraCI: 1741ms, vehicles TOT 525 ACT 400 BStep #1900.00 (1ms ~= 1000.00*RT, ~400000.00UPS, TraCI: 1463ms, vehicles TOT 525 ACT 400 BStep #2000.00 (1ms ~= 1000.00*RT, ~400000.00UPS, TraCI: 516ms, vehicles TOT 525 ACT 400 BUStep #2100.00 (1ms ~= 1000.00*RT, ~400000.00UPS, TraCI: 175ms, vehicles TOT 525 ACT 400 BUStep #2200.00 (0ms ?*RT. ?UPS, TraCI: 100ms, vehicles TOT 525 ACT 400 BUF 0)              Step #2300.00 (1ms ~= 1000.00*RT, ~400000.00UPS, TraCI: 94ms, vehicles TOT 525 ACT 400 BUFStep #2400.00 (0ms ?*RT. ?UPS, TraCI: 83ms, vehicles TOT 525 ACT 400 BUF 0)               Step #2500.00 (0ms ?*RT. ?UPS, TraCI: 78ms, vehicles TOT 525 ACT 400 BUF 0)               Step #2600.00 (0ms ?*RT. ?UPS, TraCI: 77ms, vehicles TOT 525 ACT 400 BUF 0)               Step #2700.00 (0ms ?*RT. ?UPS, TraCI: 78ms, vehicles TOT 525 ACT 400 BUF 0)               Step #2800.00 (0ms ?*RT. ?UPS, TraCI: 78ms, vehicles TOT 525 ACT 400 BUF 0)               Step #2900.00 (0ms ?*RT. ?UPS, TraCI: 77ms, vehicles TOT 525 ACT 400 BUF 0)               Step #3000.00 (0ms ?*RT. ?UPS, TraCI: 79ms, vehicles TOT 525 ACT 400 BUF 0)               
 Retrying in 1 seconds
出現数: {'A2': 44, 'A1': 356}
割合:
  Total: 400
  A1: 356 (89.00%)
  A2: 44 (11.00%)
  B1: 0 (0.00%)
  B2: 0 (0.00%)
mean elapsed_time: 546.9075
OK all vehs arrived 
平均渋滞継続時間: 478.25秒
OK all vehicle abandonment were detected
273
127
===== Simlation Result Summary =====
avg_congestion_duration: 478.25 
arrival_time_by_vehID_dict:{'init_ShelterA_1_2': 222.0, 'init_ShelterA_1_3': 229.0, 'init_ShelterA_1_4': 235.0, 'init_ShelterA_1_5': 240.0, 'init_ShelterA_1_6': 245.0, 'init_ShelterA_1_7': 286.0, 'init_ShelterA_1_8': 292.0, 'init_ShelterA_1_9': 298.0, 'init_ShelterA_1_10': 304.0, 'init_ShelterA_1_11': 310.0, 'init_ShelterA_1_12': 317.0, 'init_ShelterA_2_0': 317.0, 'init_ShelterA_1_13': 324.0, 'init_ShelterA_1_14': 332.0, 'init_ShelterA_2_1': 335.0, 'init_ShelterA_1_15': 341.0, 'init_ShelterA_1_16': 350.0, 'init_ShelterA_1_18': 359.0, 'init_ShelterA_1_19': 368.0, 'init_ShelterA_1_20': 378.0, 'init_ShelterA_1_21': 388.0, 'init_ShelterA_1_22': 397.0, 'init_ShelterA_1_23': 407.0, 'init_ShelterA_2_17': 407.0, 'init_ShelterA_1_24': 417.0, 'init_ShelterA_1_25': 427.0, 'init_ShelterA_1_26': 436.0, 'init_ShelterA_1_28': 446.0, 'init_ShelterA_1_29': 456.0, 'init_ShelterA_1_30': 465.0, 'init_ShelterA_1_33': 475.0, 'init_ShelterA_2_27': 482.0, 'init_ShelterA_1_34': 485.0, 'init_ShelterA_2_31': 491.0, 'init_ShelterA_1_35': 494.0, 'init_ShelterA_2_32': 497.0, 'init_ShelterA_1_36': 504.0, 'init_ShelterA_1_37': 514.0, 'init_ShelterA_1_38': 523.0, 'init_ShelterA_1_39': 533.0, 'init_ShelterA_1_40': 542.0, 'init_ShelterA_1_41': 552.0, 'init_ShelterA_1_42': 561.0, 'init_ShelterA_1_43': 571.0, 'init_ShelterA_1_44': 580.0, 'init_ShelterA_1_45': 590.0, 'init_ShelterA_1_46': 599.0, 'init_ShelterA_1_47': 609.0, 'init_ShelterA_1_48': 618.0, 'init_ShelterA_1_49': 628.0, 'init_ShelterA_1_50': 637.0, 'init_ShelterA_1_58': 645.0, 'init_ShelterA_1_51': 646.0, 'init_ShelterA_1_59': 647.0, 'init_ShelterA_1_60': 649.0, 'init_ShelterA_1_61': 655.0, 'init_ShelterA_1_52': 656.0, 'init_ShelterA_1_62': 657.0, 'init_ShelterA_1_63': 660.0, 'init_ShelterA_1_64': 664.0, 'init_ShelterA_1_53': 665.0, 'init_ShelterA_1_65': 666.0, 'init_ShelterA_1_66': 669.0, 'init_ShelterA_1_54': 674.0, 'init_ShelterA_1_55': 683.0, 'init_ShelterA_1_67': 685.0, 'init_ShelterA_1_69': 687.0, 'init_ShelterA_1_70': 690.0, 'init_ShelterA_1_56': 693.0, 'init_ShelterA_1_72': 693.0, 'init_ShelterA_1_57': 702.0, 'init_ShelterA_1_76': 704.0, 'init_ShelterA_2_68': 704.0, 'init_ShelterA_1_71': 714.0, 'init_ShelterA_2_73': 716.0, 'init_ShelterA_1_77': 724.0, 'init_ShelterA_1_74': 726.0, 'init_ShelterA_1_78': 729.0, 'init_ShelterA_1_80': 731.0, 'init_ShelterA_1_75': 736.0, 'init_ShelterA_1_83': 742.0, 'init_ShelterA_1_79': 745.0, 'init_ShelterA_1_84': 750.0, 'init_ShelterA_1_81': 755.0, 'init_ShelterA_2_82': 757.0, 'init_ShelterA_1_85': 760.0, 'init_ShelterA_1_86': 762.0, 'init_ShelterA_1_87': 768.0, 'init_ShelterA_1_89': 773.0, 'init_ShelterA_1_90': 775.0, 'init_ShelterA_1_88': 778.0, 'init_ShelterA_2_91': 780.0, 'init_ShelterA_2_99': 782.0, 'init_ShelterA_2_104': 785.0, 'init_ShelterA_1_108': 790.0, 'init_ShelterA_1_92': 826.0, 'init_ShelterA_1_93': 831.0, 'init_ShelterA_1_112': 833.0, 'init_ShelterA_1_94': 833.0, 'init_ShelterA_1_95': 836.0, 'init_ShelterA_1_113': 840.0, 'init_ShelterA_2_116': 842.0, 'init_ShelterA_1_96': 844.0, 'init_ShelterA_1_97': 846.0, 'init_ShelterA_1_98': 848.0, 'init_ShelterA_1_117': 849.0, 'init_ShelterA_1_100': 851.0, 'init_ShelterA_2_121': 851.0, 'init_ShelterA_1_101': 854.0, 'init_ShelterA_1_102': 857.0, 'init_ShelterA_1_103': 860.0, 'init_ShelterA_1_105': 863.0, 'init_ShelterA_1_106': 865.0, 'init_ShelterA_1_107': 869.0, 'init_ShelterA_1_109': 901.0, 'init_ShelterA_1_110': 903.0, 'init_ShelterA_1_111': 906.0, 'init_ShelterA_1_114': 930.0, 'init_ShelterA_2_137': 930.0, 'init_ShelterA_1_115': 933.0, 'init_ShelterA_2_141': 936.0, 'init_ShelterA_1_118': 937.0, 'init_ShelterA_1_119': 939.0, 'init_ShelterA_1_120': 942.0, 'init_ShelterA_1_122': 944.0, 'init_ShelterA_1_123': 947.0, 'init_ShelterA_1_124': 950.0, 'init_ShelterA_1_125': 953.0, 'init_ShelterA_1_126': 997.0, 'init_ShelterA_1_144': 1003.0, 'init_ShelterA_2_145': 1005.0, 'init_ShelterA_1_127': 1011.0, 'init_ShelterA_1_128': 1013.0, 'init_ShelterA_1_129': 1016.0, 'init_ShelterA_1_130': 1022.0, 'init_ShelterA_1_131': 1023.0, 'init_ShelterA_1_132': 1026.0, 'init_ShelterA_1_133': 1031.0, 'init_ShelterA_1_134': 1033.0, 'init_ShelterA_1_135': 1035.0, 'init_ShelterA_1_136': 1038.0, 'init_ShelterA_1_138': 1041.0, 'init_ShelterA_1_139': 1044.0, 'init_ShelterA_1_140': 1064.0, 'init_ShelterA_1_142': 1066.0, 'init_ShelterA_1_143': 1081.0, 'init_ShelterA_1_146': 1093.0, 'init_ShelterA_1_147': 1099.0, 'init_ShelterA_1_148': 1101.0, 'newveh_ShelterA_1_167_12': 1101.0, 'init_ShelterA_1_149': 1109.0, 'newveh_ShelterA_1_151_11': 1116.0, 'init_ShelterA_1_178': 1126.0, 'newveh_ShelterA_2_150_0': 1128.0, 'init_ShelterA_1_183': 1130.0, 'newveh_ShelterA_2_168_10': 1155.0, 'init_ShelterA_1_163': 1158.0, 'init_ShelterA_1_164': 1160.0, 'init_ShelterA_1_165': 1162.0, 'init_ShelterA_1_166': 1164.0, 'newveh_ShelterA_2_162_9': 1173.0, 'newveh_ShelterA_2_159_8': 1178.0, 'newveh_ShelterA_2_158_7': 1182.0, 'newveh_ShelterA_2_157_6': 1187.0, 'init_ShelterA_1_187': 1189.0, 'newveh_ShelterA_1_174_19': 1194.0, 'init_ShelterA_2_191': 1196.0, 'newveh_ShelterA_2_156_5': 1213.0, 'newveh_ShelterA_1_184_26': 1229.0, 'newveh_ShelterA_1_185_27': 1234.0, 'newveh_ShelterA_2_155_4': 1258.0, 'newveh_ShelterA_2_154_3': 1265.0, 'newveh_ShelterA_2_153_2': 1274.0, 'newveh_ShelterA_2_152_1': 1282.0, 'init_ShelterA_1_169': 1284.0, 'init_ShelterA_1_170': 1286.0, 'newveh_ShelterA_2_161_14': 1293.0, 'init_ShelterA_1_201': 1294.0, 'init_ShelterA_2_207': 1296.0, 'newveh_ShelterA_2_160_13': 1301.0, 'init_ShelterA_1_211': 1308.0, 'newveh_ShelterA_2_171_15': 1308.0, 'init_ShelterA_1_212': 1313.0, 'newveh_ShelterA_2_173_17': 1313.0, 'newveh_ShelterA_2_172_16': 1317.0, 'newveh_ShelterA_2_176_18': 1331.0, 'init_ShelterA_1_188': 1333.0, 'init_ShelterA_1_189': 1335.0, 'init_ShelterA_1_190': 1338.0, 'newveh_ShelterA_2_175_20': 1345.0, 'newveh_ShelterA_2_182_25': 1351.0, 'newveh_ShelterA_2_181_24': 1359.0, 'newveh_ShelterA_2_180_23': 1367.0, 'newveh_ShelterA_2_179_22': 1372.0, 'init_ShelterA_1_216': 1374.0, 'newveh_ShelterA_2_177_21': 1379.0, 'init_ShelterA_1_217': 1380.0, 'newveh_ShelterA_1_197_33': 1384.0, 'init_ShelterA_1_225': 1393.0, 'newveh_ShelterA_2_186_28': 1396.0, 'init_ShelterA_1_195': 1399.0, 'init_ShelterA_1_198': 1401.0, 'init_ShelterA_1_199': 1403.0, 'init_ShelterA_1_200': 1405.0, 'init_ShelterA_1_202': 1407.0, 'init_ShelterA_1_203': 1410.0, 'init_ShelterA_1_204': 1413.0, 'init_ShelterA_1_205': 1416.0, 'init_ShelterA_1_206': 1419.0, 'init_ShelterA_1_208': 1422.0, 'init_ShelterA_1_209': 1425.0, 'init_ShelterA_1_210': 1428.0, 'init_ShelterA_1_214': 1437.0, 'init_ShelterA_1_233': 1455.0, 'init_ShelterA_1_237': 1461.0, 'init_ShelterA_1_241': 1468.0, 'newveh_ShelterA_1_213_34': 1475.0, 'newveh_ShelterA_2_193_30': 1479.0, 'init_ShelterA_1_245': 1483.0, 'newveh_ShelterA_2_192_29': 1486.0, 'newveh_ShelterA_1_219_35': 1489.0, 'init_ShelterA_2_247': 1491.0, 'newveh_ShelterA_2_194_31': 1491.0, 'init_ShelterA_1_215': 1494.0, 'init_ShelterA_1_218': 1496.0, 'newveh_ShelterA_1_228_36': 1500.0, 'newveh_ShelterA_1_223_37': 1504.0, 'init_ShelterA_1_259': 1509.0, 'newveh_ShelterA_2_196_32': 1514.0, 'init_ShelterA_1_220': 1516.0, 'init_ShelterA_1_221': 1518.0, 'init_ShelterA_1_222': 1520.0, 'init_ShelterA_1_227': 1522.0, 'init_ShelterA_1_229': 1525.0, 'init_ShelterA_1_231': 1527.0, 'newveh_ShelterA_2_258_69': 1545.0, 'newveh_ShelterA_2_257_68': 1554.0, 'init_ShelterA_1_267': 1563.0, 'newveh_ShelterA_1_243_45': 1571.0, 'newveh_ShelterA_2_256_67': 1571.0, 'init_ShelterA_1_234': 1573.0, 'init_ShelterA_1_238': 1575.0, 'init_ShelterA_1_239': 1578.0, 'init_ShelterA_1_272': 1579.0, 'init_ShelterA_1_240': 1580.0, 'init_ShelterA_1_248': 1582.0, 'init_ShelterA_1_273': 1583.0, 'init_ShelterA_1_260': 1584.0, 'newveh_ShelterA_2_224_39': 1595.0, 'newveh_ShelterA_2_244_66': 1619.0, 'init_ShelterA_1_276': 1640.0, 'init_ShelterA_2_279': 1642.0, 'newveh_ShelterA_2_236_38': 1657.0, 'init_ShelterA_1_284': 1658.0, 'init_ShelterA_1_261': 1660.0, 'init_ShelterA_1_262': 1662.0, 'init_ShelterA_1_263': 1664.0, 'init_ShelterA_1_264': 1666.0, 'newveh_ShelterA_1_253_53': 1666.0, 'newveh_ShelterA_2_242_43': 1674.0, 'init_ShelterA_1_265': 1676.0, 'newveh_ShelterA_2_232_42': 1686.0, 'newveh_ShelterA_2_230_41': 1690.0, 'newveh_ShelterA_2_226_40': 1695.0, 'newveh_ShelterA_2_246_44': 1703.0, 'newveh_ShelterA_2_235_46': 1708.0, 'init_ShelterA_1_292': 1726.0, 'init_ShelterA_1_274': 1733.0, 'init_ShelterA_1_293': 1733.0, 'init_ShelterA_1_294': 1738.0, 'init_ShelterA_1_295': 1743.0, 'init_ShelterA_1_296': 1749.0, 'init_ShelterA_1_275': 1753.0, 'init_ShelterA_1_277': 1755.0, 'init_ShelterA_1_297': 1756.0, 'init_ShelterA_1_278': 1757.0, 'init_ShelterA_1_280': 1759.0, 'init_ShelterA_1_298': 1762.0, 'init_ShelterA_1_281': 1767.0, 'init_ShelterA_1_282': 1769.0, 'newveh_ShelterA_1_266_54': 1769.0, 'init_ShelterA_1_283': 1772.0, 'init_ShelterA_1_304': 1777.0, 'init_ShelterA_1_307': 1784.0, 'init_ShelterA_1_308': 1788.0, 'newveh_ShelterA_2_249_47': 1790.0, 'init_ShelterA_1_310': 1792.0, 'newveh_ShelterA_2_255_52': 1797.0, 'newveh_ShelterA_2_254_51': 1803.0, 'newveh_ShelterA_2_252_50': 1810.0, 'newveh_ShelterA_1_271_58': 1814.0, 'newveh_ShelterA_2_251_49': 1817.0, 'init_ShelterA_1_319': 1824.0, 'newveh_ShelterA_2_305_106': 1825.0, 'newveh_ShelterA_2_301_105': 1830.0, 'init_ShelterA_1_325': 1834.0, 'newveh_ShelterA_2_316_107': 1838.0, 'init_ShelterA_1_331': 1844.0, 'init_ShelterA_1_341': 1850.0, 'newveh_ShelterA_2_250_48': 1850.0, 'init_ShelterA_1_299': 1853.0, 'init_ShelterA_1_344': 1854.0, 'init_ShelterA_1_300': 1855.0, 'init_ShelterA_1_302': 1857.0, 'init_ShelterA_1_309': 1859.0, 'init_ShelterA_1_347': 1907.0, 'init_ShelterA_2_351': 1920.0, 'newveh_ShelterA_2_268_55': 1921.0, 'newveh_ShelterA_2_269_56': 1930.0, 'init_ShelterA_1_357': 1935.0, 'init_ShelterA_1_358': 1943.0, 'init_ShelterA_1_366': 1948.0, 'newveh_ShelterA_2_270_57': 1949.0, 'init_ShelterA_1_317': 1951.0, 'init_ShelterA_1_369': 1952.0, 'init_ShelterA_1_318': 1953.0, 'init_ShelterA_1_320': 1955.0, 'init_ShelterA_1_321': 1957.0, 'init_ShelterA_1_322': 1959.0, 'init_ShelterA_1_324': 1962.0, 'newveh_ShelterA_2_285_59': 1971.0, 'newveh_ShelterA_2_333_111': 1976.0, 'newveh_ShelterA_2_332_110': 1983.0, 'newveh_ShelterA_2_340_113': 1988.0, 'init_ShelterA_2_373': 1990.0, 'init_ShelterA_1_343': 1991.0, 'newveh_ShelterA_2_334_112': 1996.0, 'init_ShelterA_1_345': 1998.0, 'init_ShelterA_1_346': 2002.0, 'newveh_ShelterA_2_291_65': 2023.0, 'init_ShelterA_1_383': 2026.0, 'newveh_ShelterA_2_290_64': 2030.0, 'init_ShelterA_1_385': 2034.0, 'newveh_ShelterA_2_289_63': 2036.0, 'newveh_ShelterA_2_288_62': 2043.0, 'newveh_ShelterA_2_287_61': 2052.0, 'newveh_ShelterA_2_286_60': 2065.0, 'init_ShelterA_1_368': 2067.0, 'init_ShelterA_1_370': 2069.0, 'init_ShelterA_1_371': 2071.0, 'newveh_ShelterA_2_382_124': 2077.0, 'init_ShelterA_1_372': 2079.0, 'init_ShelterA_1_387': 2087.0, 'init_ShelterA_1_388': 2094.0, 'init_ShelterA_1_389': 2099.0, 'newveh_ShelterA_2_311_72': 2100.0, 'init_ShelterA_1_390': 2106.0, 'newveh_ShelterA_2_306_71': 2106.0, 'newveh_ShelterA_1_338_87': 2111.0, 'newveh_ShelterA_2_303_70': 2112.0, 'newveh_ShelterA_1_342_88': 2115.0, 'newveh_ShelterA_2_315_76': 2116.0, 'newveh_ShelterA_2_314_75': 2121.0, 'newveh_ShelterA_2_313_74': 2131.0, 'newveh_ShelterA_2_312_73': 2153.0, 'init_ShelterA_1_374': 2155.0, 'init_ShelterA_1_376': 2157.0, 'init_ShelterA_1_377': 2159.0, 'init_ShelterA_1_378': 2161.0, 'init_ShelterA_1_381': 2163.0, 'init_ShelterA_1_384': 2165.0, 'newveh_ShelterA_2_379_123': 2172.0, 'init_ShelterA_1_386': 2175.0, 'newveh_ShelterA_1_354_90': 2179.0, 'newveh_ShelterA_2_323_77': 2191.0, 'newveh_ShelterA_1_380_109': 2212.0, 'newveh_ShelterA_2_339_86': 2212.0, 'newveh_ShelterA_2_337_85': 2221.0, 'newveh_ShelterA_2_336_84': 2226.0, 'newveh_ShelterA_2_335_83': 2230.0, 'newveh_ShelterA_2_330_82': 2239.0, 'newveh_ShelterA_2_329_81': 2245.0, 'newveh_ShelterA_2_328_80': 2253.0, 'newveh_ShelterA_2_327_79': 2257.0, 'newveh_ShelterA_1_367_104': 2262.0, 'newveh_ShelterA_2_326_78': 2262.0, 'newveh_ShelterA_1_375_108': 2266.0, 'newveh_ShelterA_2_348_89': 2275.0, 'newveh_ShelterA_1_395_118': 2283.0, 'newveh_ShelterA_2_359_93': 2309.0, 'newveh_ShelterA_2_353_92': 2316.0, 'newveh_ShelterA_2_350_91': 2321.0, 'newveh_ShelterA_2_360_94': 2327.0, 'newveh_ShelterA_2_361_95': 2332.0, 'newveh_ShelterA_2_364_102': 2338.0, 'newveh_ShelterA_2_363_101': 2345.0, 'newveh_ShelterA_2_362_100': 2351.0, 'newveh_ShelterA_2_356_99': 2359.0, 'newveh_ShelterA_2_355_98': 2367.0, 'newveh_ShelterA_2_352_97': 2375.0, 'newveh_ShelterA_2_349_96': 2381.0, 'newveh_ShelterA_2_365_103': 2388.0, 'newveh_ShelterA_2_391_114': 2396.0, 'newveh_ShelterA_2_394_119': 2405.0, 'newveh_ShelterA_2_396_117': 2414.0, 'newveh_ShelterA_2_393_116': 2423.0, 'newveh_ShelterA_2_392_115': 2432.0, 'newveh_ShelterA_2_397_120': 2439.0, 'newveh_ShelterA_2_398_121': 2444.0, 'newveh_ShelterA_2_399_122': 2448.0}
vehicle_abandant_time_by_pedestrianID_dict:{}
walking_distance_by_pedestrianID_dict:{}
route_change_time_by_vehID_dict:{'init_ShelterA_2_68': 400.0, 'init_ShelterA_1_67': 410.0, 'init_ShelterA_1_69': 410.0, 'init_ShelterA_1_70': 410.0, 'init_ShelterA_1_65': 440.0, 'init_ShelterA_1_66': 440.0, 'init_ShelterA_1_62': 460.0, 'init_ShelterA_1_63': 460.0, 'init_ShelterA_1_64': 460.0, 'init_ShelterA_1_58': 470.0, 'init_ShelterA_1_59': 470.0, 'init_ShelterA_1_60': 470.0, 'init_ShelterA_1_61': 470.0, 'init_ShelterA_1_72': 500.0, 'init_ShelterA_2_73': 500.0, 'init_ShelterA_1_77': 510.0, 'init_ShelterA_1_76': 520.0, 'init_ShelterA_2_82': 530.0, 'init_ShelterA_1_80': 540.0, 'init_ShelterA_1_83': 540.0, 'init_ShelterA_1_86': 540.0, 'init_ShelterA_1_78': 550.0, 'init_ShelterA_1_84': 550.0, 'init_ShelterA_1_85': 550.0, 'init_ShelterA_1_89': 580.0, 'init_ShelterA_1_90': 580.0, 'init_ShelterA_2_91': 580.0, 'init_ShelterA_1_93': 590.0, 'init_ShelterA_1_95': 590.0, 'init_ShelterA_1_96': 590.0, 'init_ShelterA_1_97': 590.0, 'init_ShelterA_2_99': 590.0, 'init_ShelterA_1_100': 600.0, 'init_ShelterA_1_102': 600.0, 'init_ShelterA_1_98': 600.0, 'init_ShelterA_2_104': 600.0, 'init_ShelterA_1_101': 610.0, 'init_ShelterA_1_103': 610.0, 'init_ShelterA_1_107': 610.0, 'init_ShelterA_1_94': 610.0, 'init_ShelterA_1_150': 640.0, 'init_ShelterA_1_152': 640.0, 'init_ShelterA_1_153': 640.0, 'init_ShelterA_1_154': 640.0, 'init_ShelterA_1_155': 640.0, 'init_ShelterA_1_156': 640.0, 'init_ShelterA_1_157': 640.0, 'init_ShelterA_1_158': 640.0, 'init_ShelterA_1_159': 640.0, 'init_ShelterA_1_162': 640.0, 'init_ShelterA_1_168': 640.0, 'init_ShelterA_1_92': 640.0, 'init_ShelterA_2_151': 640.0, 'init_ShelterA_2_167': 640.0, 'init_ShelterA_1_160': 650.0, 'init_ShelterA_1_161': 650.0, 'init_ShelterA_1_109': 660.0, 'init_ShelterA_1_110': 660.0, 'init_ShelterA_1_111': 660.0, 'init_ShelterA_1_106': 670.0, 'init_ShelterA_1_114': 670.0, 'init_ShelterA_2_116': 670.0, 'init_ShelterA_1_105': 680.0, 'init_ShelterA_1_118': 680.0, 'init_ShelterA_1_119': 680.0, 'init_ShelterA_1_120': 680.0, 'init_ShelterA_1_171': 680.0, 'init_ShelterA_2_121': 680.0, 'init_ShelterA_1_115': 690.0, 'init_ShelterA_1_124': 690.0, 'init_ShelterA_1_170': 690.0, 'init_ShelterA_1_122': 700.0, 'init_ShelterA_1_172': 700.0, 'init_ShelterA_1_173': 700.0, 'init_ShelterA_1_176': 710.0, 'init_ShelterA_2_174': 710.0, 'init_ShelterA_1_175': 720.0, 'init_ShelterA_1_177': 720.0, 'init_ShelterA_1_179': 720.0, 'init_ShelterA_1_180': 720.0, 'init_ShelterA_1_181': 720.0, 'init_ShelterA_1_182': 720.0, 'init_ShelterA_2_184': 730.0, 'init_ShelterA_2_185': 730.0, 'init_ShelterA_1_126': 740.0, 'init_ShelterA_1_186': 740.0, 'init_ShelterA_1_129': 750.0, 'init_ShelterA_1_130': 750.0, 'init_ShelterA_1_125': 760.0, 'init_ShelterA_1_127': 760.0, 'init_ShelterA_1_128': 760.0, 'init_ShelterA_1_131': 760.0, 'init_ShelterA_1_132': 760.0, 'init_ShelterA_1_133': 760.0, 'init_ShelterA_1_134': 760.0, 'init_ShelterA_1_135': 760.0, 'init_ShelterA_2_137': 760.0, 'init_ShelterA_1_123': 770.0, 'init_ShelterA_1_136': 770.0, 'init_ShelterA_1_138': 770.0, 'init_ShelterA_1_139': 770.0, 'init_ShelterA_1_140': 780.0, 'init_ShelterA_1_142': 780.0, 'init_ShelterA_1_143': 780.0, 'init_ShelterA_2_141': 780.0, 'init_ShelterA_2_145': 790.0, 'init_ShelterA_1_192': 800.0, 'init_ShelterA_1_193': 800.0, 'init_ShelterA_1_194': 800.0, 'init_ShelterA_1_196': 830.0, 'init_ShelterA_2_197': 830.0, 'init_ShelterA_1_146': 840.0, 'init_ShelterA_1_147': 840.0, 'init_ShelterA_1_148': 840.0, 'init_ShelterA_1_149': 840.0, 'init_ShelterA_1_163': 850.0, 'init_ShelterA_1_165': 860.0, 'init_ShelterA_1_164': 870.0, 'init_ShelterA_1_166': 870.0, 'init_ShelterA_2_213': 900.0, 'init_ShelterA_2_219': 910.0, 'init_ShelterA_2_228': 940.0, 'init_ShelterA_1_169': 950.0, 'init_ShelterA_1_188': 960.0, 'init_ShelterA_2_223': 960.0, 'init_ShelterA_1_236': 970.0, 'init_ShelterA_1_224': 980.0, 'init_ShelterA_1_226': 980.0, 'init_ShelterA_1_230': 980.0, 'init_ShelterA_1_232': 980.0, 'init_ShelterA_1_242': 980.0, 'init_ShelterA_1_189': 990.0, 'init_ShelterA_1_246': 990.0, 'init_ShelterA_2_243': 990.0, 'init_ShelterA_1_235': 1000.0, 'init_ShelterA_2_191': 1000.0, 'init_ShelterA_1_190': 1020.0, 'init_ShelterA_1_249': 1060.0, 'init_ShelterA_1_250': 1060.0, 'init_ShelterA_1_251': 1060.0, 'init_ShelterA_1_252': 1060.0, 'init_ShelterA_1_254': 1060.0, 'init_ShelterA_1_255': 1060.0, 'init_ShelterA_2_253': 1060.0, 'init_ShelterA_2_207': 1100.0, 'init_ShelterA_2_266': 1100.0, 'init_ShelterA_1_195': 1110.0, 'init_ShelterA_1_202': 1110.0, 'init_ShelterA_1_203': 1110.0, 'init_ShelterA_1_206': 1110.0, 'init_ShelterA_1_208': 1110.0, 'init_ShelterA_1_209': 1110.0, 'init_ShelterA_1_200': 1120.0, 'init_ShelterA_1_204': 1120.0, 'init_ShelterA_1_205': 1120.0, 'init_ShelterA_1_210': 1120.0, 'init_ShelterA_1_214': 1120.0, 'init_ShelterA_1_199': 1130.0, 'init_ShelterA_1_198': 1140.0, 'init_ShelterA_1_268': 1140.0, 'init_ShelterA_1_269': 1140.0, 'init_ShelterA_1_270': 1140.0, 'init_ShelterA_2_271': 1160.0, 'init_ShelterA_1_218': 1200.0, 'init_ShelterA_1_222': 1200.0, 'init_ShelterA_1_215': 1210.0, 'init_ShelterA_1_234': 1220.0, 'init_ShelterA_1_285': 1240.0, 'init_ShelterA_1_286': 1240.0, 'init_ShelterA_1_287': 1240.0, 'init_ShelterA_1_288': 1240.0, 'init_ShelterA_1_289': 1240.0, 'init_ShelterA_1_290': 1240.0, 'init_ShelterA_1_291': 1240.0, 'init_ShelterA_2_247': 1250.0, 'init_ShelterA_1_244': 1260.0, 'init_ShelterA_1_256': 1260.0, 'init_ShelterA_1_257': 1260.0, 'init_ShelterA_1_258': 1260.0, 'init_ShelterA_1_227': 1270.0, 'init_ShelterA_1_261': 1270.0, 'init_ShelterA_1_262': 1270.0, 'init_ShelterA_1_238': 1290.0, 'init_ShelterA_1_240': 1290.0, 'init_ShelterA_1_231': 1300.0, 'init_ShelterA_1_239': 1300.0, 'init_ShelterA_1_263': 1300.0, 'init_ShelterA_1_264': 1300.0, 'init_ShelterA_1_220': 1310.0, 'init_ShelterA_1_221': 1310.0, 'init_ShelterA_1_229': 1310.0, 'init_ShelterA_1_275': 1310.0, 'init_ShelterA_1_277': 1310.0, 'init_ShelterA_1_303': 1320.0, 'init_ShelterA_1_306': 1320.0, 'init_ShelterA_1_311': 1320.0, 'init_ShelterA_1_312': 1320.0, 'init_ShelterA_1_313': 1320.0, 'init_ShelterA_1_314': 1320.0, 'init_ShelterA_1_315': 1320.0, 'init_ShelterA_1_260': 1340.0, 'init_ShelterA_1_265': 1340.0, 'init_ShelterA_1_248': 1360.0, 'init_ShelterA_1_323': 1400.0, 'init_ShelterA_1_326': 1400.0, 'init_ShelterA_1_327': 1400.0, 'init_ShelterA_1_328': 1400.0, 'init_ShelterA_1_329': 1400.0, 'init_ShelterA_1_330': 1400.0, 'init_ShelterA_1_335': 1400.0, 'init_ShelterA_1_336': 1400.0, 'init_ShelterA_1_337': 1400.0, 'init_ShelterA_1_339': 1400.0, 'init_ShelterA_2_338': 1400.0, 'init_ShelterA_2_279': 1410.0, 'init_ShelterA_2_342': 1410.0, 'init_ShelterA_1_282': 1430.0, 'init_ShelterA_1_283': 1430.0, 'init_ShelterA_1_278': 1440.0, 'init_ShelterA_1_281': 1440.0, 'init_ShelterA_2_351': 1450.0, 'init_ShelterA_1_274': 1460.0, 'init_ShelterA_1_280': 1470.0, 'init_ShelterA_1_348': 1470.0, 'init_ShelterA_2_354': 1470.0, 'init_ShelterA_1_350': 1480.0, 'init_ShelterA_1_353': 1480.0, 'init_ShelterA_1_359': 1480.0, 'init_ShelterA_1_360': 1480.0, 'init_ShelterA_1_361': 1480.0, 'init_ShelterA_1_349': 1490.0, 'init_ShelterA_1_352': 1490.0, 'init_ShelterA_1_355': 1490.0, 'init_ShelterA_1_356': 1490.0, 'init_ShelterA_1_362': 1490.0, 'init_ShelterA_1_363': 1490.0, 'init_ShelterA_1_364': 1490.0, 'init_ShelterA_1_365': 1490.0, 'init_ShelterA_2_367': 1500.0, 'init_ShelterA_1_300': 1520.0, 'init_ShelterA_1_301': 1520.0, 'init_ShelterA_1_302': 1520.0, 'init_ShelterA_1_305': 1520.0, 'init_ShelterA_1_316': 1530.0, 'init_ShelterA_2_375': 1550.0, 'init_ShelterA_1_321': 1560.0, 'init_ShelterA_1_324': 1560.0, 'init_ShelterA_2_380': 1560.0, 'init_ShelterA_1_343': 1570.0, 'init_ShelterA_1_317': 1600.0, 'init_ShelterA_1_318': 1600.0, 'init_ShelterA_1_320': 1600.0, 'init_ShelterA_1_322': 1600.0, 'init_ShelterA_1_332': 1610.0, 'init_ShelterA_1_333': 1610.0, 'init_ShelterA_1_334': 1620.0, 'init_ShelterA_1_340': 1620.0, 'init_ShelterA_1_299': 1630.0, 'init_ShelterA_1_391': 1630.0, 'init_ShelterA_1_392': 1630.0, 'init_ShelterA_1_393': 1630.0, 'init_ShelterA_1_396': 1630.0, 'init_ShelterA_2_395': 1630.0, 'init_ShelterA_1_309': 1640.0, 'init_ShelterA_1_394': 1640.0, 'init_ShelterA_1_397': 1640.0, 'init_ShelterA_1_398': 1640.0, 'init_ShelterA_1_399': 1640.0, 'init_ShelterA_1_370': 1660.0, 'init_ShelterA_1_345': 1680.0, 'init_ShelterA_1_346': 1700.0, 'init_ShelterA_2_373': 1770.0, 'init_ShelterA_1_368': 1780.0, 'init_ShelterA_1_371': 1780.0, 'init_ShelterA_1_372': 1780.0, 'init_ShelterA_1_379': 1790.0, 'init_ShelterA_1_382': 1790.0, 'init_ShelterA_1_376': 1900.0, 'init_ShelterA_1_378': 1900.0, 'init_ShelterA_1_381': 1900.0, 'init_ShelterA_1_384': 1900.0, 'init_ShelterA_1_386': 1900.0, 'init_ShelterA_1_374': 1910.0, 'init_ShelterA_1_377': 1910.0}
pedestrian_count:0
route_changed_vehicle_count:284
route_change_event_count:284
rate_vehicle_abandonment:0.00%
wrong_way_driving_count:0
vehicle_abandonment_count:0
normalcy_bias_route_change_count:149
majority_bias_route_change_count:135
lane_changed_vehicle_count:0
info_obtained_lanechange_count:0
elapsed_time_lanechange_count:0
majority_bias_lanechange_count:0

=== Job Result ===
end=2026-07-13T02:24:43+0900
elapsed_seconds=434
exit_code=0
status=SUCCESS
