=== Job Info ===
job_name=va_s10_e1.0_v1.0_r37
host=schubert
pid=131937
scenario=10
early_rate=1.0
v2v_rate=1.0
run_id=37
config=/home/katagi/vehicle-assistant-system/scenarios/JIP/configs/config_scenario_10.toml
output_dir=/home/katagi/vehicle-assistant-system/schubert_logs/va_s10_e1.0_v1.0_r37
start=2026-07-13T02:55:04+0900
python_version=Python 3.12.3
sumo_version=Eclipse SUMO sumo Version v1_23_1+0435-630512a

=== Command ===
cd /home/katagi/vehicle-assistant-system/schubert_logs/va_s10_e1.0_v1.0_r37
PYTHONPATH=/home/katagi/vehicle-assistant-system:/home/katagi/tmp/sumo/tools:/home/katagi/local/sumo/tools:/home/katagi/tmp/sumo/tools:/home/katagi/local/sumo/tools:/home/katagi/tmp/sumo/tools:/home/katagi/local/sumo/tools: python3 -W ignore::UserWarning -m scenarios.JIP.1-1-4.simulation.runner_simulator --nogui /home/katagi/vehicle-assistant-system/scenarios/JIP/configs/config_scenario_10.toml 1.0 1.0
simulation_pid=131957
Step #0.00 (1ms ~= 1000.00*RT, ~1000.00UPS, TraCI: 332ms, vehicles TOT 1 ACT 1 BUF 0)     Step #100.00 (0ms ?*RT. ?UPS, TraCI: 18ms, vehicles TOT 26 ACT 26 BUF 0)                  Step #200.00 (0ms ?*RT. ?UPS, TraCI: 36ms, vehicles TOT 51 ACT 51 BUF 0)                  Step #300.00 (0ms ?*RT. ?UPS, TraCI: 56ms, vehicles TOT 77 ACT 77 BUF 0)                  Step #400.00 (1ms ~= 1000.00*RT, ~104000.00UPS, TraCI: 73ms, vehicles TOT 104 ACT 104 BUF Step #500.00 (1ms ~= 1000.00*RT, ~131000.00UPS, TraCI: 91ms, vehicles TOT 131 ACT 131 BUF Step #600.00 (1ms ~= 1000.00*RT, ~158000.00UPS, TraCI: 2242ms, vehicles TOT 160 ACT 158 BUStep #700.00 (0ms ?*RT. ?UPS, TraCI: 1997ms, vehicles TOT 188 ACT 186 BUF 0)              Step #800.00 (0ms ?*RT. ?UPS, TraCI: 2569ms, vehicles TOT 235 ACT 193 BUF 22)             Step #900.00 (1ms ~= 1000.00*RT, ~207000.00UPS, TraCI: 1735ms, vehicles TOT 254 ACT 207 BUStep #1000.00 (1ms ~= 1000.00*RT, ~238000.00UPS, TraCI: 1844ms, vehicles TOT 291 ACT 238 BStep #1100.00 (0ms ?*RT. ?UPS, TraCI: 1000ms, vehicles TOT 323 ACT 254 BUF 50)            Step #1200.00 (1ms ~= 1000.00*RT, ~277000.00UPS, TraCI: 1630ms, vehicles TOT 353 ACT 277 BStep #1300.00 (1ms ~= 1000.00*RT, ~301000.00UPS, TraCI: 2902ms, vehicles TOT 381 ACT 301 BStep #1400.00 (1ms ~= 1000.00*RT, ~317000.00UPS, TraCI: 2929ms, vehicles TOT 410 ACT 317 BStep #1500.00 (1ms ~= 1000.00*RT, ~340000.00UPS, TraCI: 2985ms, vehicles TOT 441 ACT 340 BStep #1600.00 (1ms ~= 1000.00*RT, ~364000.00UPS, TraCI: 2158ms, vehicles TOT 479 ACT 364 BStep #1700.00 (1ms ~= 1000.00*RT, ~377000.00UPS, TraCI: 1898ms, vehicles TOT 513 ACT 377 BStep #1800.00 (1ms ~= 1000.00*RT, ~400000.00UPS, TraCI: 1207ms, vehicles TOT 536 ACT 400 BStep #1900.00 (1ms ~= 1000.00*RT, ~400000.00UPS, TraCI: 948ms, vehicles TOT 536 ACT 400 BUStep #2000.00 (1ms ~= 1000.00*RT, ~400000.00UPS, TraCI: 683ms, vehicles TOT 536 ACT 400 BUStep #2100.00 (0ms ?*RT. ?UPS, TraCI: 504ms, vehicles TOT 536 ACT 400 BUF 0)              Step #2200.00 (1ms ~= 1000.00*RT, ~400000.00UPS, TraCI: 99ms, vehicles TOT 536 ACT 400 BUFStep #2300.00 (0ms ?*RT. ?UPS, TraCI: 96ms, vehicles TOT 536 ACT 400 BUF 0)               Step #2400.00 (0ms ?*RT. ?UPS, TraCI: 89ms, vehicles TOT 536 ACT 400 BUF 0)               Step #2500.00 (0ms ?*RT. ?UPS, TraCI: 78ms, vehicles TOT 536 ACT 400 BUF 0)               Step #2600.00 (0ms ?*RT. ?UPS, TraCI: 79ms, vehicles TOT 536 ACT 400 BUF 0)               Step #2700.00 (0ms ?*RT. ?UPS, TraCI: 78ms, vehicles TOT 536 ACT 400 BUF 0)               Step #2800.00 (0ms ?*RT. ?UPS, TraCI: 77ms, vehicles TOT 536 ACT 400 BUF 0)               Step #2900.00 (0ms ?*RT. ?UPS, TraCI: 77ms, vehicles TOT 536 ACT 400 BUF 0)               Step #3000.00 (0ms ?*RT. ?UPS, TraCI: 78ms, vehicles TOT 536 ACT 400 BUF 0)               
 Retrying in 1 seconds
出現数: {'A1': 363, 'A2': 37}
割合:
  Total: 400
  A1: 363 (90.75%)
  A2: 37 (9.25%)
  B1: 0 (0.00%)
  B2: 0 (0.00%)
mean elapsed_time: 571.94
OK all vehs arrived 
平均渋滞継続時間: 491.15秒
OK all vehicle abandonment were detected
263
137
===== Simlation Result Summary =====
avg_congestion_duration: 491.15 
arrival_time_by_vehID_dict:{'init_ShelterA_1_0': 210.0, 'init_ShelterA_1_1': 234.0, 'init_ShelterA_1_2': 239.0, 'init_ShelterA_1_3': 244.0, 'init_ShelterA_1_4': 287.0, 'init_ShelterA_1_5': 293.0, 'init_ShelterA_1_6': 300.0, 'init_ShelterA_1_7': 305.0, 'init_ShelterA_1_8': 311.0, 'init_ShelterA_1_9': 317.0, 'init_ShelterA_1_10': 324.0, 'init_ShelterA_1_11': 331.0, 'init_ShelterA_1_12': 339.0, 'init_ShelterA_1_13': 348.0, 'init_ShelterA_1_14': 357.0, 'init_ShelterA_1_15': 366.0, 'init_ShelterA_1_16': 376.0, 'init_ShelterA_1_17': 385.0, 'init_ShelterA_1_18': 395.0, 'init_ShelterA_1_19': 405.0, 'init_ShelterA_1_20': 414.0, 'init_ShelterA_1_21': 424.0, 'init_ShelterA_1_22': 434.0, 'init_ShelterA_1_23': 443.0, 'init_ShelterA_1_24': 453.0, 'init_ShelterA_1_25': 463.0, 'init_ShelterA_1_26': 473.0, 'init_ShelterA_1_28': 482.0, 'init_ShelterA_1_29': 492.0, 'init_ShelterA_2_27': 500.0, 'init_ShelterA_1_30': 502.0, 'init_ShelterA_1_31': 511.0, 'init_ShelterA_2_33': 513.0, 'init_ShelterA_1_32': 521.0, 'init_ShelterA_1_34': 530.0, 'init_ShelterA_1_35': 540.0, 'init_ShelterA_1_36': 549.0, 'init_ShelterA_1_37': 559.0, 'init_ShelterA_1_39': 569.0, 'init_ShelterA_2_38': 571.0, 'init_ShelterA_2_48': 576.0, 'init_ShelterA_1_40': 578.0, 'init_ShelterA_1_41': 588.0, 'init_ShelterA_1_42': 597.0, 'init_ShelterA_1_43': 607.0, 'init_ShelterA_1_44': 616.0, 'init_ShelterA_1_45': 626.0, 'init_ShelterA_1_46': 635.0, 'init_ShelterA_1_47': 644.0, 'init_ShelterA_1_49': 654.0, 'init_ShelterA_2_58': 657.0, 'init_ShelterA_1_50': 663.0, 'init_ShelterA_1_51': 672.0, 'init_ShelterA_1_71': 678.0, 'init_ShelterA_1_52': 682.0, 'init_ShelterA_1_53': 691.0, 'init_ShelterA_1_54': 700.0, 'init_ShelterA_1_55': 709.0, 'newveh_ShelterA_2_64_0': 717.0, 'init_ShelterA_1_56': 719.0, 'newveh_ShelterA_2_68_1': 722.0, 'init_ShelterA_1_57': 728.0, 'init_ShelterA_1_59': 737.0, 'init_ShelterA_1_60': 746.0, 'init_ShelterA_1_86': 752.0, 'init_ShelterA_1_61': 755.0, 'init_ShelterA_1_88': 758.0, 'init_ShelterA_1_62': 764.0, 'init_ShelterA_1_63': 772.0, 'init_ShelterA_2_65': 775.0, 'init_ShelterA_1_66': 784.0, 'init_ShelterA_2_67': 787.0, 'init_ShelterA_1_89': 794.0, 'init_ShelterA_1_69': 797.0, 'init_ShelterA_2_70': 799.0, 'init_ShelterA_2_72': 801.0, 'init_ShelterA_1_90': 811.0, 'init_ShelterA_1_73': 812.0, 'init_ShelterA_1_91': 813.0, 'init_ShelterA_1_92': 818.0, 'init_ShelterA_1_74': 822.0, 'init_ShelterA_1_93': 831.0, 'init_ShelterA_1_75': 832.0, 'init_ShelterA_1_94': 833.0, 'init_ShelterA_1_95': 836.0, 'init_ShelterA_1_96': 839.0, 'init_ShelterA_1_76': 841.0, 'init_ShelterA_1_77': 850.0, 'init_ShelterA_1_78': 860.0, 'init_ShelterA_1_79': 870.0, 'init_ShelterA_1_80': 879.0, 'init_ShelterA_1_81': 889.0, 'init_ShelterA_1_109': 892.0, 'init_ShelterA_1_82': 898.0, 'init_ShelterA_1_83': 907.0, 'init_ShelterA_1_84': 917.0, 'init_ShelterA_1_85': 926.0, 'init_ShelterA_1_110': 927.0, 'init_ShelterA_1_111': 929.0, 'init_ShelterA_1_87': 935.0, 'init_ShelterA_1_112': 939.0, 'init_ShelterA_1_115': 941.0, 'init_ShelterA_1_116': 944.0, 'init_ShelterA_1_97': 945.0, 'init_ShelterA_1_117': 947.0, 'init_ShelterA_2_98': 948.0, 'init_ShelterA_1_118': 950.0, 'init_ShelterA_2_99': 950.0, 'init_ShelterA_1_119': 952.0, 'init_ShelterA_2_100': 952.0, 'init_ShelterA_1_120': 960.0, 'init_ShelterA_1_101': 962.0, 'init_ShelterA_1_123': 962.0, 'init_ShelterA_1_102': 972.0, 'init_ShelterA_1_103': 982.0, 'init_ShelterA_2_104': 984.0, 'init_ShelterA_1_124': 987.0, 'init_ShelterA_1_105': 994.0, 'init_ShelterA_2_106': 996.0, 'init_ShelterA_1_107': 1006.0, 'init_ShelterA_1_108': 1016.0, 'init_ShelterA_1_125': 1023.0, 'init_ShelterA_1_113': 1025.0, 'init_ShelterA_1_126': 1025.0, 'init_ShelterA_1_129': 1027.0, 'init_ShelterA_1_130': 1030.0, 'init_ShelterA_1_131': 1033.0, 'init_ShelterA_1_114': 1035.0, 'init_ShelterA_1_132': 1036.0, 'init_ShelterA_1_133': 1039.0, 'init_ShelterA_1_121': 1045.0, 'init_ShelterA_1_134': 1046.0, 'init_ShelterA_2_122': 1047.0, 'init_ShelterA_1_135': 1048.0, 'init_ShelterA_1_136': 1050.0, 'init_ShelterA_1_138': 1054.0, 'init_ShelterA_1_127': 1057.0, 'init_ShelterA_1_139': 1057.0, 'init_ShelterA_1_128': 1067.0, 'init_ShelterA_1_140': 1068.0, 'init_ShelterA_1_141': 1070.0, 'init_ShelterA_1_137': 1076.0, 'init_ShelterA_2_145': 1079.0, 'init_ShelterA_1_149': 1089.0, 'init_ShelterA_1_151': 1099.0, 'init_ShelterA_1_142': 1104.0, 'init_ShelterA_1_152': 1109.0, 'init_ShelterA_1_143': 1118.0, 'init_ShelterA_1_154': 1118.0, 'init_ShelterA_1_144': 1120.0, 'init_ShelterA_1_146': 1123.0, 'init_ShelterA_1_147': 1125.0, 'init_ShelterA_1_148': 1128.0, 'init_ShelterA_1_155': 1128.0, 'init_ShelterA_1_150': 1131.0, 'init_ShelterA_1_153': 1134.0, 'init_ShelterA_1_157': 1137.0, 'init_ShelterA_1_156': 1138.0, 'init_ShelterA_1_158': 1147.0, 'init_ShelterA_1_159': 1157.0, 'init_ShelterA_1_160': 1166.0, 'init_ShelterA_1_161': 1176.0, 'init_ShelterA_1_162': 1186.0, 'init_ShelterA_2_163': 1188.0, 'init_ShelterA_1_164': 1198.0, 'newveh_ShelterA_2_166_2': 1207.0, 'init_ShelterA_1_165': 1208.0, 'init_ShelterA_1_188': 1217.0, 'newveh_ShelterA_1_190_26': 1224.0, 'newveh_ShelterA_1_182_25': 1230.0, 'newveh_ShelterA_2_191_22': 1230.0, 'newveh_ShelterA_1_178_24': 1234.0, 'newveh_ShelterA_2_189_21': 1237.0, 'newveh_ShelterA_1_167_23': 1239.0, 'newveh_ShelterA_2_187_20': 1242.0, 'newveh_ShelterA_2_186_19': 1250.0, 'newveh_ShelterA_2_185_18': 1255.0, 'newveh_ShelterA_2_184_17': 1259.0, 'init_ShelterA_1_207': 1277.0, 'init_ShelterA_1_208': 1283.0, 'newveh_ShelterA_2_183_16': 1286.0, 'init_ShelterA_1_210': 1288.0, 'newveh_ShelterA_2_181_15': 1295.0, 'newveh_ShelterA_2_180_14': 1299.0, 'newveh_ShelterA_2_179_13': 1312.0, 'newveh_ShelterA_2_177_12': 1320.0, 'newveh_ShelterA_2_176_11': 1325.0, 'newveh_ShelterA_2_175_10': 1331.0, 'newveh_ShelterA_2_174_9': 1338.0, 'newveh_ShelterA_2_173_8': 1345.0, 'newveh_ShelterA_2_172_7': 1352.0, 'newveh_ShelterA_2_171_6': 1360.0, 'newveh_ShelterA_2_170_5': 1366.0, 'newveh_ShelterA_1_209_42': 1369.0, 'newveh_ShelterA_2_169_4': 1374.0, 'init_ShelterA_1_215': 1375.0, 'newveh_ShelterA_2_168_3': 1378.0, 'newveh_ShelterA_1_211_43': 1380.0, 'newveh_ShelterA_2_194_27': 1383.0, 'init_ShelterA_1_216': 1386.0, 'init_ShelterA_1_217': 1391.0, 'init_ShelterA_1_218': 1397.0, 'newveh_ShelterA_2_196_29': 1402.0, 'init_ShelterA_1_219': 1403.0, 'newveh_ShelterA_2_192_28': 1409.0, 'init_ShelterA_1_220': 1410.0, 'newveh_ShelterA_2_197_30': 1415.0, 'init_ShelterA_1_221': 1417.0, 'newveh_ShelterA_2_200_31': 1421.0, 'init_ShelterA_1_222': 1424.0, 'newveh_ShelterA_2_201_32': 1427.0, 'init_ShelterA_1_223': 1433.0, 'newveh_ShelterA_2_202_33': 1434.0, 'init_ShelterA_1_224': 1441.0, 'newveh_ShelterA_2_195_35': 1441.0, 'init_ShelterA_1_225': 1446.0, 'newveh_ShelterA_2_193_34': 1448.0, 'init_ShelterA_1_227': 1452.0, 'newveh_ShelterA_2_198_36': 1457.0, 'init_ShelterA_1_228': 1459.0, 'init_ShelterA_1_229': 1466.0, 'newveh_ShelterA_2_203_38': 1466.0, 'init_ShelterA_1_230': 1474.0, 'newveh_ShelterA_2_199_37': 1474.0, 'newveh_ShelterA_2_204_39': 1481.0, 'init_ShelterA_1_231': 1483.0, 'newveh_ShelterA_2_206_41': 1486.0, 'newveh_ShelterA_2_205_40': 1490.0, 'init_ShelterA_1_233': 1492.0, 'init_ShelterA_1_234': 1502.0, 'init_ShelterA_1_235': 1511.0, 'init_ShelterA_1_236': 1521.0, 'newveh_ShelterA_1_213_46': 1530.0, 'init_ShelterA_1_241': 1540.0, 'init_ShelterA_1_242': 1550.0, 'init_ShelterA_1_245': 1559.0, 'init_ShelterA_1_246': 1569.0, 'newveh_ShelterA_2_214_45': 1575.0, 'init_ShelterA_1_254': 1579.0, 'newveh_ShelterA_2_212_44': 1580.0, 'init_ShelterA_1_255': 1588.0, 'init_ShelterA_1_256': 1598.0, 'init_ShelterA_1_257': 1608.0, 'init_ShelterA_1_258': 1618.0, 'init_ShelterA_1_259': 1627.0, 'init_ShelterA_1_267': 1635.0, 'init_ShelterA_1_268': 1642.0, 'init_ShelterA_1_269': 1649.0, 'newveh_ShelterA_2_239_51': 1653.0, 'init_ShelterA_1_270': 1656.0, 'init_ShelterA_1_278': 1665.0, 'newveh_ShelterA_2_238_50': 1670.0, 'init_ShelterA_1_279': 1674.0, 'newveh_ShelterA_2_237_49': 1674.0, 'init_ShelterA_1_281': 1684.0, 'newveh_ShelterA_1_249_53': 1693.0, 'newveh_ShelterA_2_232_48': 1702.0, 'init_ShelterA_1_284': 1703.0, 'newveh_ShelterA_2_226_47': 1710.0, 'init_ShelterA_1_285': 1711.0, 'newveh_ShelterA_1_248_54': 1717.0, 'init_ShelterA_1_286': 1721.0, 'init_ShelterA_1_288': 1725.0, 'newveh_ShelterA_2_240_52': 1731.0, 'init_ShelterA_1_272': 1733.0, 'init_ShelterA_1_273': 1735.0, 'newveh_ShelterA_1_264_68': 1735.0, 'init_ShelterA_1_275': 1737.0, 'init_ShelterA_1_277': 1740.0, 'init_ShelterA_1_280': 1742.0, 'init_ShelterA_1_282': 1745.0, 'init_ShelterA_1_287': 1748.0, 'init_ShelterA_1_296': 1754.0, 'init_ShelterA_1_297': 1761.0, 'newveh_ShelterA_2_243_55': 1763.0, 'init_ShelterA_1_298': 1766.0, 'newveh_ShelterA_2_262_59': 1769.0, 'init_ShelterA_1_299': 1773.0, 'init_ShelterA_1_300': 1778.0, 'newveh_ShelterA_2_261_58': 1778.0, 'newveh_ShelterA_1_271_69': 1782.0, 'newveh_ShelterA_2_260_57': 1783.0, 'newveh_ShelterA_2_251_56': 1787.0, 'newveh_ShelterA_2_317_101': 1808.0, 'init_ShelterA_1_318': 1813.0, 'newveh_ShelterA_2_319_103': 1814.0, 'newveh_ShelterA_2_244_60': 1819.0, 'newveh_ShelterA_1_283_72': 1821.0, 'newveh_ShelterA_2_266_67': 1825.0, 'newveh_ShelterA_1_274_70': 1826.0, 'init_ShelterA_2_320': 1828.0, 'newveh_ShelterA_2_265_66': 1829.0, 'newveh_ShelterA_1_276_71': 1836.0, 'init_ShelterA_1_323': 1843.0, 'newveh_ShelterA_2_263_65': 1844.0, 'init_ShelterA_1_324': 1850.0, 'newveh_ShelterA_2_253_64': 1852.0, 'init_ShelterA_1_325': 1858.0, 'newveh_ShelterA_2_252_63': 1858.0, 'newveh_ShelterA_2_250_62': 1865.0, 'init_ShelterA_1_326': 1867.0, 'init_ShelterA_1_327': 1875.0, 'newveh_ShelterA_2_247_61': 1875.0, 'init_ShelterA_1_301': 1878.0, 'init_ShelterA_1_302': 1880.0, 'init_ShelterA_1_336': 1881.0, 'init_ShelterA_1_338': 1885.0, 'newveh_ShelterA_2_315_102': 1885.0, 'init_ShelterA_1_339': 1890.0, 'init_ShelterA_2_341': 1892.0, 'init_ShelterA_1_343': 1912.0, 'init_ShelterA_1_345': 1924.0, 'init_ShelterA_1_346': 1929.0, 'newveh_ShelterA_2_337_115': 1932.0, 'init_ShelterA_1_355': 1939.0, 'newveh_ShelterA_2_340_116': 1943.0, 'init_ShelterA_1_321': 1945.0, 'init_ShelterA_1_322': 1947.0, 'newveh_ShelterA_2_289_73': 1952.0, 'newveh_ShelterA_2_290_74': 1974.0, 'newveh_ShelterA_2_291_75': 1978.0, 'init_ShelterA_1_361': 1992.0, 'init_ShelterA_1_368': 2010.0, 'newveh_ShelterA_2_349_131': 2010.0, 'newveh_ShelterA_1_308_80': 2014.0, 'newveh_ShelterA_2_347_130': 2017.0, 'newveh_ShelterA_2_358_135': 2023.0, 'newveh_ShelterA_2_357_134': 2029.0, 'newveh_ShelterA_2_356_133': 2037.0, 'newveh_ShelterA_2_348_132': 2045.0, 'init_ShelterA_1_342': 2047.0, 'newveh_ShelterA_2_292_76': 2056.0, 'init_ShelterA_1_344': 2058.0, 'newveh_ShelterA_2_293_77': 2067.0, 'newveh_ShelterA_2_295_79': 2075.0, 'init_ShelterA_1_377': 2092.0, 'newveh_ShelterA_2_294_78': 2097.0, 'init_ShelterA_1_350': 2100.0, 'init_ShelterA_1_351': 2102.0, 'init_ShelterA_1_352': 2104.0, 'init_ShelterA_1_379': 2104.0, 'init_ShelterA_1_353': 2106.0, 'init_ShelterA_1_354': 2108.0, 'init_ShelterA_1_359': 2110.0, 'init_ShelterA_1_390': 2111.0, 'init_ShelterA_1_360': 2113.0, 'init_ShelterA_1_362': 2115.0, 'init_ShelterA_1_392': 2116.0, 'init_ShelterA_1_363': 2118.0, 'init_ShelterA_1_364': 2121.0, 'init_ShelterA_1_394': 2122.0, 'init_ShelterA_1_369': 2124.0, 'init_ShelterA_1_370': 2127.0, 'init_ShelterA_1_395': 2129.0, 'init_ShelterA_1_396': 2135.0, 'init_ShelterA_1_399': 2140.0, 'newveh_ShelterA_2_307_82': 2140.0, 'newveh_ShelterA_1_373_104': 2144.0, 'newveh_ShelterA_2_303_81': 2147.0, 'newveh_ShelterA_2_304_83': 2153.0, 'newveh_ShelterA_2_305_84': 2158.0, 'newveh_ShelterA_2_306_85': 2166.0, 'newveh_ShelterA_2_309_86': 2171.0, 'newveh_ShelterA_2_310_87': 2176.0, 'newveh_ShelterA_2_311_88': 2182.0, 'newveh_ShelterA_2_312_89': 2194.0, 'newveh_ShelterA_2_313_90': 2202.0, 'newveh_ShelterA_2_316_92': 2207.0, 'newveh_ShelterA_1_381_114': 2213.0, 'newveh_ShelterA_2_314_91': 2214.0, 'newveh_ShelterA_2_328_93': 2221.0, 'newveh_ShelterA_2_335_100': 2225.0, 'newveh_ShelterA_2_334_99': 2229.0, 'newveh_ShelterA_1_387_117': 2273.0, 'newveh_ShelterA_2_333_98': 2280.0, 'newveh_ShelterA_2_332_97': 2289.0, 'newveh_ShelterA_2_331_96': 2294.0, 'newveh_ShelterA_2_365_108': 2298.0, 'newveh_ShelterA_2_330_95': 2307.0, 'newveh_ShelterA_2_329_94': 2315.0, 'newveh_ShelterA_2_366_105': 2320.0, 'newveh_ShelterA_2_376_107': 2325.0, 'newveh_ShelterA_2_375_106': 2331.0, 'newveh_ShelterA_2_374_111': 2337.0, 'newveh_ShelterA_2_371_110': 2344.0, 'newveh_ShelterA_2_372_112': 2351.0, 'newveh_ShelterA_2_367_109': 2359.0, 'newveh_ShelterA_2_378_113': 2367.0, 'newveh_ShelterA_2_397_121': 2371.0, 'newveh_ShelterA_2_398_122': 2376.0, 'newveh_ShelterA_2_380_123': 2389.0, 'newveh_ShelterA_2_391_120': 2396.0, 'newveh_ShelterA_2_389_119': 2401.0, 'newveh_ShelterA_2_385_118': 2407.0, 'newveh_ShelterA_2_393_129': 2412.0, 'newveh_ShelterA_2_388_128': 2418.0, 'newveh_ShelterA_2_386_127': 2425.0, 'newveh_ShelterA_2_384_126': 2433.0, 'newveh_ShelterA_2_383_125': 2438.0, 'newveh_ShelterA_2_382_124': 2442.0}
vehicle_abandant_time_by_pedestrianID_dict:{}
walking_distance_by_pedestrianID_dict:{}
route_change_time_by_vehID_dict:{'init_ShelterA_2_65': 510.0, 'init_ShelterA_2_67': 510.0, 'init_ShelterA_2_70': 510.0, 'init_ShelterA_2_72': 510.0, 'init_ShelterA_1_64': 520.0, 'init_ShelterA_1_71': 520.0, 'init_ShelterA_1_68': 530.0, 'init_ShelterA_1_89': 590.0, 'init_ShelterA_1_92': 590.0, 'init_ShelterA_1_86': 600.0, 'init_ShelterA_1_91': 600.0, 'init_ShelterA_2_100': 600.0, 'init_ShelterA_2_98': 600.0, 'init_ShelterA_2_99': 600.0, 'init_ShelterA_1_88': 610.0, 'init_ShelterA_1_93': 610.0, 'init_ShelterA_1_94': 610.0, 'init_ShelterA_1_95': 610.0, 'init_ShelterA_1_96': 610.0, 'init_ShelterA_2_104': 610.0, 'init_ShelterA_2_106': 610.0, 'init_ShelterA_1_90': 640.0, 'init_ShelterA_1_109': 670.0, 'init_ShelterA_2_122': 690.0, 'init_ShelterA_1_117': 700.0, 'init_ShelterA_1_120': 700.0, 'init_ShelterA_1_123': 700.0, 'init_ShelterA_1_116': 710.0, 'init_ShelterA_1_118': 710.0, 'init_ShelterA_1_115': 720.0, 'init_ShelterA_1_166': 720.0, 'init_ShelterA_1_168': 720.0, 'init_ShelterA_1_169': 720.0, 'init_ShelterA_1_170': 720.0, 'init_ShelterA_1_171': 720.0, 'init_ShelterA_1_172': 720.0, 'init_ShelterA_1_173': 720.0, 'init_ShelterA_1_174': 720.0, 'init_ShelterA_1_175': 720.0, 'init_ShelterA_1_176': 720.0, 'init_ShelterA_1_177': 720.0, 'init_ShelterA_1_179': 720.0, 'init_ShelterA_1_180': 720.0, 'init_ShelterA_1_181': 720.0, 'init_ShelterA_1_183': 720.0, 'init_ShelterA_1_184': 720.0, 'init_ShelterA_1_185': 720.0, 'init_ShelterA_1_186': 720.0, 'init_ShelterA_1_187': 720.0, 'init_ShelterA_1_189': 720.0, 'init_ShelterA_1_191': 720.0, 'init_ShelterA_2_167': 720.0, 'init_ShelterA_2_178': 720.0, 'init_ShelterA_2_182': 720.0, 'init_ShelterA_2_190': 720.0, 'init_ShelterA_1_110': 730.0, 'init_ShelterA_1_111': 730.0, 'init_ShelterA_1_112': 730.0, 'init_ShelterA_1_119': 730.0, 'init_ShelterA_1_124': 740.0, 'init_ShelterA_1_129': 770.0, 'init_ShelterA_1_131': 770.0, 'init_ShelterA_1_132': 770.0, 'init_ShelterA_1_126': 780.0, 'init_ShelterA_1_130': 780.0, 'init_ShelterA_1_133': 780.0, 'init_ShelterA_1_135': 780.0, 'init_ShelterA_1_136': 780.0, 'init_ShelterA_1_138': 780.0, 'init_ShelterA_1_194': 780.0, 'init_ShelterA_1_125': 790.0, 'init_ShelterA_1_134': 790.0, 'init_ShelterA_1_139': 790.0, 'init_ShelterA_1_140': 790.0, 'init_ShelterA_1_192': 790.0, 'init_ShelterA_1_196': 790.0, 'init_ShelterA_1_197': 790.0, 'init_ShelterA_1_200': 790.0, 'init_ShelterA_1_201': 790.0, 'init_ShelterA_1_202': 790.0, 'init_ShelterA_1_193': 800.0, 'init_ShelterA_1_195': 800.0, 'init_ShelterA_1_198': 800.0, 'init_ShelterA_1_199': 800.0, 'init_ShelterA_1_203': 800.0, 'init_ShelterA_1_204': 800.0, 'init_ShelterA_1_205': 800.0, 'init_ShelterA_1_206': 800.0, 'init_ShelterA_2_209': 810.0, 'init_ShelterA_2_211': 820.0, 'init_ShelterA_1_141': 830.0, 'init_ShelterA_1_143': 840.0, 'init_ShelterA_1_146': 850.0, 'init_ShelterA_1_147': 850.0, 'init_ShelterA_1_150': 850.0, 'init_ShelterA_2_145': 850.0, 'init_ShelterA_1_142': 860.0, 'init_ShelterA_1_144': 860.0, 'init_ShelterA_1_148': 860.0, 'init_ShelterA_1_212': 890.0, 'init_ShelterA_1_214': 890.0, 'init_ShelterA_2_213': 890.0, 'init_ShelterA_1_157': 920.0, 'init_ShelterA_1_153': 930.0, 'init_ShelterA_2_163': 940.0, 'init_ShelterA_1_226': 990.0, 'init_ShelterA_1_232': 990.0, 'init_ShelterA_1_237': 990.0, 'init_ShelterA_1_238': 990.0, 'init_ShelterA_1_239': 990.0, 'init_ShelterA_1_240': 990.0, 'init_ShelterA_2_249': 1030.0, 'init_ShelterA_2_248': 1040.0, 'init_ShelterA_1_243': 1050.0, 'init_ShelterA_1_251': 1060.0, 'init_ShelterA_1_260': 1060.0, 'init_ShelterA_1_261': 1060.0, 'init_ShelterA_1_262': 1060.0, 'init_ShelterA_1_244': 1070.0, 'init_ShelterA_1_247': 1070.0, 'init_ShelterA_1_250': 1070.0, 'init_ShelterA_1_252': 1070.0, 'init_ShelterA_1_253': 1070.0, 'init_ShelterA_1_263': 1070.0, 'init_ShelterA_1_265': 1070.0, 'init_ShelterA_1_266': 1070.0, 'init_ShelterA_2_264': 1070.0, 'init_ShelterA_2_271': 1140.0, 'init_ShelterA_2_274': 1150.0, 'init_ShelterA_2_276': 1160.0, 'init_ShelterA_2_283': 1160.0, 'init_ShelterA_1_289': 1200.0, 'init_ShelterA_1_290': 1200.0, 'init_ShelterA_1_291': 1200.0, 'init_ShelterA_1_292': 1230.0, 'init_ShelterA_1_293': 1230.0, 'init_ShelterA_1_294': 1230.0, 'init_ShelterA_1_295': 1250.0, 'init_ShelterA_2_308': 1310.0, 'init_ShelterA_1_303': 1320.0, 'init_ShelterA_1_307': 1320.0, 'init_ShelterA_1_304': 1330.0, 'init_ShelterA_1_305': 1330.0, 'init_ShelterA_1_306': 1330.0, 'init_ShelterA_1_309': 1330.0, 'init_ShelterA_1_310': 1330.0, 'init_ShelterA_1_311': 1330.0, 'init_ShelterA_1_312': 1330.0, 'init_ShelterA_1_313': 1330.0, 'init_ShelterA_1_314': 1330.0, 'init_ShelterA_1_316': 1330.0, 'init_ShelterA_1_328': 1410.0, 'init_ShelterA_1_329': 1410.0, 'init_ShelterA_1_330': 1410.0, 'init_ShelterA_1_331': 1410.0, 'init_ShelterA_1_332': 1410.0, 'init_ShelterA_1_333': 1410.0, 'init_ShelterA_1_334': 1410.0, 'init_ShelterA_1_335': 1410.0, 'init_ShelterA_1_272': 1450.0, 'init_ShelterA_1_273': 1450.0, 'init_ShelterA_1_275': 1450.0, 'init_ShelterA_1_277': 1450.0, 'init_ShelterA_1_280': 1460.0, 'init_ShelterA_1_282': 1470.0, 'init_ShelterA_1_287': 1480.0, 'init_ShelterA_1_317': 1520.0, 'init_ShelterA_2_320': 1530.0, 'init_ShelterA_1_315': 1540.0, 'init_ShelterA_1_319': 1540.0, 'init_ShelterA_1_322': 1550.0, 'init_ShelterA_2_373': 1550.0, 'init_ShelterA_1_366': 1560.0, 'init_ShelterA_1_375': 1560.0, 'init_ShelterA_1_376': 1560.0, 'init_ShelterA_1_365': 1570.0, 'init_ShelterA_1_367': 1570.0, 'init_ShelterA_1_371': 1570.0, 'init_ShelterA_1_374': 1570.0, 'init_ShelterA_2_341': 1570.0, 'init_ShelterA_1_302': 1580.0, 'init_ShelterA_1_321': 1580.0, 'init_ShelterA_1_342': 1580.0, 'init_ShelterA_1_301': 1590.0, 'init_ShelterA_1_372': 1590.0, 'init_ShelterA_1_378': 1590.0, 'init_ShelterA_2_381': 1600.0, 'init_ShelterA_1_337': 1610.0, 'init_ShelterA_1_340': 1620.0, 'init_ShelterA_2_387': 1630.0, 'init_ShelterA_1_344': 1640.0, 'init_ShelterA_1_350': 1650.0, 'init_ShelterA_1_352': 1650.0, 'init_ShelterA_1_385': 1650.0, 'init_ShelterA_1_389': 1650.0, 'init_ShelterA_1_391': 1650.0, 'init_ShelterA_1_397': 1650.0, 'init_ShelterA_1_398': 1650.0, 'init_ShelterA_1_351': 1660.0, 'init_ShelterA_1_353': 1660.0, 'init_ShelterA_1_354': 1660.0, 'init_ShelterA_1_380': 1660.0, 'init_ShelterA_1_382': 1660.0, 'init_ShelterA_1_383': 1660.0, 'init_ShelterA_1_384': 1660.0, 'init_ShelterA_1_386': 1660.0, 'init_ShelterA_1_388': 1660.0, 'init_ShelterA_1_393': 1660.0, 'init_ShelterA_1_347': 1690.0, 'init_ShelterA_1_349': 1690.0, 'init_ShelterA_1_348': 1700.0, 'init_ShelterA_1_356': 1700.0, 'init_ShelterA_1_357': 1700.0, 'init_ShelterA_1_358': 1700.0, 'init_ShelterA_1_363': 1730.0, 'init_ShelterA_1_364': 1730.0, 'init_ShelterA_1_369': 1730.0, 'init_ShelterA_1_362': 1740.0, 'init_ShelterA_1_359': 1780.0, 'init_ShelterA_1_370': 1780.0, 'init_ShelterA_1_360': 1830.0}
pedestrian_count:0
route_changed_vehicle_count:221
route_change_event_count:221
rate_vehicle_abandonment:0.00%
wrong_way_driving_count:0
vehicle_abandonment_count:0
normalcy_bias_route_change_count:142
majority_bias_route_change_count:79
lane_changed_vehicle_count:0
info_obtained_lanechange_count:0
elapsed_time_lanechange_count:0
majority_bias_lanechange_count:0

=== Job Result ===
end=2026-07-13T03:03:10+0900
elapsed_seconds=486
exit_code=0
status=SUCCESS
