=== Job Info ===
job_name=va_s6_e1.0_v1.0_r46
host=schubert
pid=121124
scenario=6
early_rate=1.0
v2v_rate=1.0
run_id=46
config=/home/katagi/vehicle-assistant-system/scenarios/JIP/configs/config_scenario_6.toml
output_dir=/home/katagi/vehicle-assistant-system/schubert_logs/va_s6_e1.0_v1.0_r46
start=2026-07-13T02:00:52+0900
python_version=Python 3.12.3
sumo_version=Eclipse SUMO sumo Version v1_23_1+0435-630512a

=== Command ===
cd /home/katagi/vehicle-assistant-system/schubert_logs/va_s6_e1.0_v1.0_r46
PYTHONPATH=/home/katagi/vehicle-assistant-system:/home/katagi/tmp/sumo/tools:/home/katagi/local/sumo/tools:/home/katagi/tmp/sumo/tools:/home/katagi/local/sumo/tools:/home/katagi/tmp/sumo/tools:/home/katagi/local/sumo/tools: python3 -W ignore::UserWarning -m scenarios.JIP.1-1-4.simulation.runner_simulator --nogui /home/katagi/vehicle-assistant-system/scenarios/JIP/configs/config_scenario_6.toml 1.0 1.0
simulation_pid=121144
Step #0.00 (0ms ?*RT. ?UPS, TraCI: 334ms, vehicles TOT 1 ACT 1 BUF 0)                     Step #100.00 (0ms ?*RT. ?UPS, TraCI: 18ms, vehicles TOT 26 ACT 26 BUF 0)                  Step #200.00 (1ms ~= 1000.00*RT, ~51000.00UPS, TraCI: 36ms, vehicles TOT 51 ACT 51 BUF 0) Step #300.00 (0ms ?*RT. ?UPS, TraCI: 54ms, vehicles TOT 77 ACT 77 BUF 0)                  Step #400.00 (0ms ?*RT. ?UPS, TraCI: 411ms, vehicles TOT 104 ACT 104 BUF 0)               Step #500.00 (1ms ~= 1000.00*RT, ~131000.00UPS, TraCI: 1563ms, vehicles TOT 131 ACT 131 BUStep #600.00 (1ms ~= 1000.00*RT, ~158000.00UPS, TraCI: 964ms, vehicles TOT 158 ACT 158 BUFStep #700.00 (1ms ~= 1000.00*RT, ~186000.00UPS, TraCI: 429ms, vehicles TOT 186 ACT 186 BUFStep #800.00 (0ms ?*RT. ?UPS, TraCI: 202ms, vehicles TOT 211 ACT 211 BUF 4)               Step #900.00 (0ms ?*RT. ?UPS, TraCI: 1324ms, vehicles TOT 235 ACT 208 BUF 36)             Step #1000.00 (0ms ?*RT. ?UPS, TraCI: 772ms, vehicles TOT 261 ACT 234 BUF 40)             Step #1100.00 (1ms ~= 1000.00*RT, ~256000.00UPS, TraCI: 1492ms, vehicles TOT 300 ACT 256 BStep #1200.00 (1ms ~= 1000.00*RT, ~285000.00UPS, TraCI: 442ms, vehicles TOT 342 ACT 285 BUStep #1300.00 (1ms ~= 1000.00*RT, ~298000.00UPS, TraCI: 1363ms, vehicles TOT 381 ACT 298 BStep #1400.00 (1ms ~= 1000.00*RT, ~317000.00UPS, TraCI: 1267ms, vehicles TOT 408 ACT 317 BStep #1500.00 (1ms ~= 1000.00*RT, ~337000.00UPS, TraCI: 1043ms, vehicles TOT 449 ACT 337 BStep #1600.00 (1ms ~= 1000.00*RT, ~362000.00UPS, TraCI: 1220ms, vehicles TOT 487 ACT 362 BStep #1700.00 (1ms ~= 1000.00*RT, ~385000.00UPS, TraCI: 590ms, vehicles TOT 513 ACT 385 BUStep #1800.00 (1ms ~= 1000.00*RT, ~400000.00UPS, TraCI: 1695ms, vehicles TOT 535 ACT 400 BStep #1900.00 (1ms ~= 1000.00*RT, ~400000.00UPS, TraCI: 498ms, vehicles TOT 535 ACT 400 BUStep #2000.00 (1ms ~= 1000.00*RT, ~400000.00UPS, TraCI: 314ms, vehicles TOT 535 ACT 400 BUStep #2100.00 (1ms ~= 1000.00*RT, ~400000.00UPS, TraCI: 128ms, vehicles TOT 535 ACT 400 BUStep #2200.00 (1ms ~= 1000.00*RT, ~400000.00UPS, TraCI: 120ms, vehicles TOT 535 ACT 400 BUStep #2300.00 (0ms ?*RT. ?UPS, TraCI: 109ms, vehicles TOT 535 ACT 400 BUF 0)              Step #2400.00 (0ms ?*RT. ?UPS, TraCI: 102ms, vehicles TOT 535 ACT 400 BUF 0)              Step #2500.00 (0ms ?*RT. ?UPS, TraCI: 98ms, vehicles TOT 535 ACT 400 BUF 0)               Step #2600.00 (0ms ?*RT. ?UPS, TraCI: 89ms, vehicles TOT 535 ACT 400 BUF 0)               Step #2700.00 (0ms ?*RT. ?UPS, TraCI: 78ms, vehicles TOT 535 ACT 400 BUF 0)               Step #2800.00 (0ms ?*RT. ?UPS, TraCI: 77ms, vehicles TOT 535 ACT 400 BUF 0)               Step #2900.00 (0ms ?*RT. ?UPS, TraCI: 78ms, vehicles TOT 535 ACT 400 BUF 0)               Step #3000.00 (1ms ~= 1000.00*RT, ~400000.00UPS, TraCI: 75ms, vehicles TOT 535 ACT 400 BUF
 Retrying in 1 seconds
出現数: {'A1': 358, 'A2': 42}
割合:
  Total: 400
  A1: 358 (89.50%)
  A2: 42 (10.50%)
  B1: 0 (0.00%)
  B2: 0 (0.00%)
mean elapsed_time: 599.1075
OK all vehs arrived 
平均渋滞継続時間: 500.04秒
OK all vehicle abandonment were detected
251
149
===== Simlation Result Summary =====
avg_congestion_duration: 500.04 
arrival_time_by_vehID_dict:{'init_ShelterA_1_0': 221.0, 'init_ShelterA_1_1': 228.0, 'init_ShelterA_1_2': 233.0, 'init_ShelterA_1_3': 239.0, 'init_ShelterA_1_4': 246.0, 'init_ShelterA_1_5': 251.0, 'init_ShelterA_1_6': 255.0, 'init_ShelterA_1_7': 283.0, 'init_ShelterA_1_10': 289.0, 'init_ShelterA_1_11': 297.0, 'init_ShelterA_1_12': 304.0, 'init_ShelterA_1_13': 310.0, 'init_ShelterA_1_14': 315.0, 'init_ShelterA_1_15': 322.0, 'init_ShelterA_1_16': 328.0, 'init_ShelterA_1_17': 335.0, 'init_ShelterA_1_18': 343.0, 'init_ShelterA_1_19': 352.0, 'init_ShelterA_1_20': 360.0, 'init_ShelterA_1_21': 365.0, 'init_ShelterA_1_22': 371.0, 'init_ShelterA_1_23': 376.0, 'init_ShelterA_2_8': 380.0, 'init_ShelterA_1_24': 383.0, 'init_ShelterA_1_27': 390.0, 'init_ShelterA_2_9': 394.0, 'init_ShelterA_1_28': 398.0, 'init_ShelterA_1_29': 407.0, 'init_ShelterA_1_30': 416.0, 'init_ShelterA_1_31': 425.0, 'init_ShelterA_1_32': 434.0, 'init_ShelterA_1_33': 444.0, 'init_ShelterA_1_35': 454.0, 'init_ShelterA_1_36': 463.0, 'init_ShelterA_1_37': 471.0, 'init_ShelterA_2_25': 471.0, 'init_ShelterA_1_39': 478.0, 'init_ShelterA_1_40': 486.0, 'init_ShelterA_2_26': 490.0, 'init_ShelterA_1_41': 494.0, 'init_ShelterA_1_43': 503.0, 'init_ShelterA_2_34': 510.0, 'init_ShelterA_1_44': 512.0, 'init_ShelterA_2_38': 515.0, 'init_ShelterA_1_45': 522.0, 'init_ShelterA_1_46': 531.0, 'init_ShelterA_1_47': 541.0, 'init_ShelterA_1_48': 551.0, 'init_ShelterA_1_49': 560.0, 'init_ShelterA_2_42': 560.0, 'init_ShelterA_1_50': 570.0, 'init_ShelterA_1_51': 580.0, 'init_ShelterA_1_52': 589.0, 'init_ShelterA_1_53': 599.0, 'init_ShelterA_1_54': 609.0, 'init_ShelterA_1_55': 618.0, 'init_ShelterA_1_56': 626.0, 'init_ShelterA_1_59': 629.0, 'init_ShelterA_1_60': 631.0, 'init_ShelterA_1_57': 632.0, 'init_ShelterA_1_58': 637.0, 'init_ShelterA_1_74': 642.0, 'init_ShelterA_2_76': 644.0, 'init_ShelterA_1_61': 659.0, 'init_ShelterA_2_86': 660.0, 'init_ShelterA_1_62': 670.0, 'init_ShelterA_1_63': 672.0, 'init_ShelterA_1_64': 675.0, 'init_ShelterA_1_65': 678.0, 'init_ShelterA_1_66': 681.0, 'init_ShelterA_1_67': 684.0, 'init_ShelterA_1_68': 687.0, 'init_ShelterA_1_69': 694.0, 'init_ShelterA_1_70': 696.0, 'init_ShelterA_1_71': 699.0, 'init_ShelterA_1_72': 702.0, 'init_ShelterA_1_73': 705.0, 'init_ShelterA_1_75': 728.0, 'init_ShelterA_1_77': 730.0, 'init_ShelterA_1_78': 733.0, 'init_ShelterA_1_79': 739.0, 'init_ShelterA_1_80': 745.0, 'init_ShelterA_1_81': 747.0, 'init_ShelterA_1_82': 749.0, 'init_ShelterA_1_83': 755.0, 'init_ShelterA_1_84': 757.0, 'init_ShelterA_1_103': 758.0, 'init_ShelterA_1_85': 760.0, 'init_ShelterA_1_105': 769.0, 'init_ShelterA_2_108': 771.0, 'init_ShelterA_1_87': 774.0, 'init_ShelterA_1_88': 776.0, 'init_ShelterA_1_89': 779.0, 'init_ShelterA_1_90': 781.0, 'init_ShelterA_1_91': 784.0, 'init_ShelterA_2_109': 810.0, 'init_ShelterA_1_92': 828.0, 'init_ShelterA_1_93': 830.0, 'init_ShelterA_2_117': 832.0, 'init_ShelterA_1_94': 833.0, 'init_ShelterA_2_118': 833.0, 'init_ShelterA_1_95': 838.0, 'init_ShelterA_1_96': 853.0, 'init_ShelterA_1_97': 855.0, 'init_ShelterA_2_123': 857.0, 'init_ShelterA_1_98': 858.0, 'init_ShelterA_1_99': 861.0, 'init_ShelterA_1_100': 863.0, 'init_ShelterA_1_101': 866.0, 'init_ShelterA_1_102': 869.0, 'init_ShelterA_1_104': 872.0, 'init_ShelterA_1_106': 875.0, 'init_ShelterA_1_107': 878.0, 'init_ShelterA_2_129': 905.0, 'init_ShelterA_1_110': 913.0, 'init_ShelterA_1_111': 920.0, 'init_ShelterA_2_138': 922.0, 'init_ShelterA_1_112': 923.0, 'init_ShelterA_1_113': 925.0, 'init_ShelterA_1_114': 927.0, 'init_ShelterA_1_115': 930.0, 'init_ShelterA_1_116': 933.0, 'init_ShelterA_1_119': 936.0, 'init_ShelterA_1_120': 939.0, 'init_ShelterA_1_142': 948.0, 'init_ShelterA_1_121': 961.0, 'init_ShelterA_1_122': 962.0, 'init_ShelterA_1_124': 964.0, 'init_ShelterA_1_125': 967.0, 'init_ShelterA_1_126': 982.0, 'init_ShelterA_1_127': 1015.0, 'init_ShelterA_1_128': 1017.0, 'init_ShelterA_1_130': 1019.0, 'init_ShelterA_2_151': 1019.0, 'init_ShelterA_1_131': 1022.0, 'init_ShelterA_2_153': 1023.0, 'init_ShelterA_1_132': 1024.0, 'init_ShelterA_1_133': 1027.0, 'init_ShelterA_1_134': 1030.0, 'init_ShelterA_1_135': 1035.0, 'init_ShelterA_1_136': 1037.0, 'init_ShelterA_1_137': 1039.0, 'init_ShelterA_1_155': 1041.0, 'init_ShelterA_1_139': 1042.0, 'init_ShelterA_1_140': 1046.0, 'init_ShelterA_1_141': 1048.0, 'init_ShelterA_1_143': 1083.0, 'init_ShelterA_1_144': 1086.0, 'init_ShelterA_1_145': 1114.0, 'init_ShelterA_2_169': 1114.0, 'init_ShelterA_2_172': 1116.0, 'init_ShelterA_1_146': 1154.0, 'init_ShelterA_1_147': 1156.0, 'init_ShelterA_1_148': 1158.0, 'init_ShelterA_1_149': 1160.0, 'init_ShelterA_1_150': 1162.0, 'init_ShelterA_1_152': 1165.0, 'init_ShelterA_1_154': 1168.0, 'init_ShelterA_1_156': 1171.0, 'init_ShelterA_1_157': 1174.0, 'init_ShelterA_1_158': 1177.0, 'init_ShelterA_2_178': 1179.0, 'init_ShelterA_1_159': 1180.0, 'init_ShelterA_1_160': 1183.0, 'init_ShelterA_1_161': 1186.0, 'init_ShelterA_1_162': 1189.0, 'init_ShelterA_1_163': 1192.0, 'init_ShelterA_2_185': 1198.0, 'init_ShelterA_2_191': 1204.0, 'init_ShelterA_1_164': 1209.0, 'init_ShelterA_1_165': 1211.0, 'init_ShelterA_1_166': 1213.0, 'init_ShelterA_1_167': 1215.0, 'init_ShelterA_1_168': 1218.0, 'init_ShelterA_1_170': 1221.0, 'init_ShelterA_1_171': 1223.0, 'init_ShelterA_1_173': 1226.0, 'init_ShelterA_1_174': 1229.0, 'init_ShelterA_1_175': 1232.0, 'init_ShelterA_1_176': 1260.0, 'init_ShelterA_2_195': 1265.0, 'init_ShelterA_1_177': 1286.0, 'init_ShelterA_1_179': 1288.0, 'init_ShelterA_1_180': 1290.0, 'init_ShelterA_1_181': 1292.0, 'init_ShelterA_1_182': 1295.0, 'init_ShelterA_1_183': 1297.0, 'init_ShelterA_1_184': 1299.0, 'init_ShelterA_1_186': 1302.0, 'init_ShelterA_1_187': 1306.0, 'init_ShelterA_1_188': 1309.0, 'init_ShelterA_1_189': 1312.0, 'init_ShelterA_1_190': 1314.0, 'init_ShelterA_1_192': 1317.0, 'init_ShelterA_1_193': 1366.0, 'init_ShelterA_1_194': 1368.0, 'init_ShelterA_1_196': 1371.0, 'init_ShelterA_1_197': 1375.0, 'init_ShelterA_1_198': 1377.0, 'init_ShelterA_1_199': 1388.0, 'init_ShelterA_1_200': 1390.0, 'init_ShelterA_1_201': 1392.0, 'init_ShelterA_1_202': 1403.0, 'init_ShelterA_1_203': 1405.0, 'init_ShelterA_1_204': 1407.0, 'init_ShelterA_1_232': 1409.0, 'init_ShelterA_1_233': 1412.0, 'init_ShelterA_1_234': 1414.0, 'newveh_ShelterA_2_205_0': 1431.0, 'init_ShelterA_1_235': 1441.0, 'init_ShelterA_1_236': 1448.0, 'init_ShelterA_1_237': 1460.0, 'init_ShelterA_1_238': 1461.0, 'init_ShelterA_1_239': 1463.0, 'init_ShelterA_1_240': 1471.0, 'newveh_ShelterA_1_230_25': 1488.0, 'newveh_ShelterA_2_206_1': 1491.0, 'newveh_ShelterA_1_220_24': 1495.0, 'newveh_ShelterA_1_214_23': 1502.0, 'newveh_ShelterA_2_207_2': 1503.0, 'newveh_ShelterA_1_211_22': 1506.0, 'init_ShelterA_1_245': 1510.0, 'newveh_ShelterA_2_208_3': 1510.0, 'newveh_ShelterA_2_209_4': 1516.0, 'newveh_ShelterA_2_210_5': 1522.0, 'newveh_ShelterA_2_212_6': 1529.0, 'newveh_ShelterA_2_213_7': 1536.0, 'init_ShelterA_2_268': 1538.0, 'newveh_ShelterA_2_216_9': 1544.0, 'newveh_ShelterA_2_215_8': 1550.0, 'newveh_ShelterA_2_217_10': 1555.0, 'newveh_ShelterA_2_218_11': 1563.0, 'newveh_ShelterA_2_263_76': 1568.0, 'newveh_ShelterA_2_262_75': 1576.0, 'newveh_ShelterA_1_250_32': 1578.0, 'newveh_ShelterA_2_267_80': 1581.0, 'newveh_ShelterA_2_221_13': 1585.0, 'newveh_ShelterA_2_219_12': 1591.0, 'newveh_ShelterA_2_222_14': 1596.0, 'newveh_ShelterA_2_223_15': 1601.0, 'newveh_ShelterA_2_224_16': 1607.0, 'newveh_ShelterA_2_225_17': 1613.0, 'newveh_ShelterA_2_226_18': 1620.0, 'newveh_ShelterA_2_227_19': 1627.0, 'newveh_ShelterA_2_229_21': 1634.0, 'init_ShelterA_1_289': 1641.0, 'newveh_ShelterA_2_228_20': 1643.0, 'init_ShelterA_1_291': 1647.0, 'newveh_ShelterA_1_254_39': 1652.0, 'newveh_ShelterA_2_231_26': 1652.0, 'init_ShelterA_1_247': 1654.0, 'newveh_ShelterA_1_258_43': 1660.0, 'newveh_ShelterA_2_266_79': 1664.0, 'init_ShelterA_1_295': 1666.0, 'newveh_ShelterA_2_265_78': 1673.0, 'newveh_ShelterA_2_264_77': 1695.0, 'init_ShelterA_1_248': 1697.0, 'init_ShelterA_1_249': 1700.0, 'init_ShelterA_1_269': 1702.0, 'init_ShelterA_1_270': 1704.0, 'init_ShelterA_1_271': 1706.0, 'init_ShelterA_1_272': 1708.0, 'init_ShelterA_1_273': 1710.0, 'init_ShelterA_1_275': 1713.0, 'newveh_ShelterA_2_241_27': 1721.0, 'newveh_ShelterA_1_276_51': 1726.0, 'newveh_ShelterA_2_253_31': 1726.0, 'newveh_ShelterA_2_252_30': 1735.0, 'newveh_ShelterA_2_251_29': 1743.0, 'newveh_ShelterA_2_242_33': 1753.0, 'newveh_ShelterA_2_257_38': 1762.0, 'init_ShelterA_1_325': 1766.0, 'newveh_ShelterA_2_256_37': 1772.0, 'newveh_ShelterA_2_277_85': 1781.0, 'newveh_ShelterA_2_274_84': 1791.0, 'init_ShelterA_2_328': 1798.0, 'newveh_ShelterA_2_316_94': 1801.0, 'newveh_ShelterA_2_315_93': 1810.0, 'newveh_ShelterA_2_255_36': 1820.0, 'init_ShelterA_1_333': 1825.0, 'newveh_ShelterA_2_244_28': 1830.0, 'init_ShelterA_1_290': 1832.0, 'newveh_ShelterA_2_246_35': 1842.0, 'newveh_ShelterA_2_243_34': 1852.0, 'newveh_ShelterA_2_261_42': 1861.0, 'newveh_ShelterA_2_260_41': 1871.0, 'newveh_ShelterA_2_259_40': 1881.0, 'init_ShelterA_1_309': 1883.0, 'newveh_ShelterA_2_285_44': 1894.0, 'init_ShelterA_1_317': 1896.0, 'newveh_ShelterA_2_314_92': 1906.0, 'newveh_ShelterA_1_306_71': 1915.0, 'newveh_ShelterA_2_313_91': 1916.0, 'init_ShelterA_1_318': 1918.0, 'init_ShelterA_1_344': 1927.0, 'newveh_ShelterA_2_288_50': 1928.0, 'init_ShelterA_1_357': 1937.0, 'newveh_ShelterA_2_287_49': 1938.0, 'newveh_ShelterA_2_286_48': 1948.0, 'init_ShelterA_1_319': 1950.0, 'newveh_ShelterA_2_283_47': 1960.0, 'newveh_ShelterA_2_281_46': 1970.0, 'newveh_ShelterA_2_279_45': 1979.0, 'newveh_ShelterA_2_278_52': 1989.0, 'newveh_ShelterA_1_321_82': 1996.0, 'init_ShelterA_2_369': 1998.0, 'newveh_ShelterA_2_284_55': 1999.0, 'newveh_ShelterA_2_282_54': 2009.0, 'init_ShelterA_1_388': 2015.0, 'newveh_ShelterA_2_280_53': 2020.0, 'init_ShelterA_1_324': 2022.0, 'init_ShelterA_1_327': 2024.0, 'init_ShelterA_1_394': 2024.0, 'init_ShelterA_2_396': 2027.0, 'init_ShelterA_1_398': 2031.0, 'newveh_ShelterA_2_326_113': 2033.0, 'newveh_ShelterA_2_323_112': 2043.0, 'newveh_ShelterA_2_340_126': 2053.0, 'newveh_ShelterA_2_339_125': 2063.0, 'init_ShelterA_1_329': 2065.0, 'newveh_ShelterA_2_296_56': 2080.0, 'init_ShelterA_1_330': 2082.0, 'init_ShelterA_1_331': 2084.0, 'init_ShelterA_1_332': 2086.0, 'newveh_ShelterA_2_299_60': 2095.0, 'newveh_ShelterA_1_334_90': 2098.0, 'newveh_ShelterA_1_348_95': 2103.0, 'newveh_ShelterA_2_298_59': 2103.0, 'newveh_ShelterA_1_352_101': 2109.0, 'newveh_ShelterA_2_297_58': 2112.0, 'newveh_ShelterA_2_293_57': 2121.0, 'newveh_ShelterA_2_300_61': 2131.0, 'newveh_ShelterA_2_303_66': 2140.0, 'newveh_ShelterA_2_302_65': 2150.0, 'newveh_ShelterA_2_301_64': 2160.0, 'init_ShelterA_1_341': 2162.0, 'newveh_ShelterA_2_292_62': 2172.0, 'newveh_ShelterA_2_362_127': 2182.0, 'newveh_ShelterA_2_304_67': 2192.0, 'newveh_ShelterA_2_294_63': 2201.0, 'newveh_ShelterA_1_390_124': 2203.0, 'newveh_ShelterA_2_308_70': 2211.0, 'newveh_ShelterA_2_307_69': 2221.0, 'newveh_ShelterA_2_305_68': 2231.0, 'newveh_ShelterA_2_312_74': 2240.0, 'newveh_ShelterA_2_311_73': 2250.0, 'newveh_ShelterA_2_310_72': 2270.0, 'init_ShelterA_1_361': 2273.0, 'init_ShelterA_1_363': 2275.0, 'init_ShelterA_1_364': 2277.0, 'init_ShelterA_1_365': 2279.0, 'init_ShelterA_1_366': 2281.0, 'init_ShelterA_1_367': 2283.0, 'newveh_ShelterA_2_393_131': 2291.0, 'newveh_ShelterA_2_387_130': 2297.0, 'newveh_ShelterA_2_320_81': 2307.0, 'init_ShelterA_1_368': 2309.0, 'init_ShelterA_1_370': 2311.0, 'newveh_ShelterA_2_322_83': 2334.0, 'init_ShelterA_1_374': 2336.0, 'init_ShelterA_1_376': 2338.0, 'init_ShelterA_1_377': 2340.0, 'init_ShelterA_1_389': 2342.0, 'init_ShelterA_1_395': 2344.0, 'init_ShelterA_1_397': 2346.0, 'init_ShelterA_1_399': 2349.0, 'newveh_ShelterA_2_379_129': 2357.0, 'newveh_ShelterA_2_378_128': 2362.0, 'newveh_ShelterA_2_392_134': 2371.0, 'newveh_ShelterA_2_391_133': 2380.0, 'newveh_ShelterA_2_381_132': 2389.0, 'newveh_ShelterA_2_336_87': 2399.0, 'newveh_ShelterA_2_335_86': 2409.0, 'newveh_ShelterA_2_338_89': 2418.0, 'newveh_ShelterA_2_337_88': 2428.0, 'newveh_ShelterA_2_351_100': 2438.0, 'newveh_ShelterA_2_350_99': 2447.0, 'newveh_ShelterA_2_349_98': 2457.0, 'newveh_ShelterA_2_343_97': 2467.0, 'newveh_ShelterA_2_342_96': 2477.0, 'newveh_ShelterA_2_355_107': 2486.0, 'newveh_ShelterA_2_354_106': 2496.0, 'newveh_ShelterA_2_353_105': 2505.0, 'newveh_ShelterA_2_347_104': 2515.0, 'newveh_ShelterA_2_346_103': 2525.0, 'newveh_ShelterA_2_345_102': 2534.0, 'newveh_ShelterA_2_356_108': 2544.0, 'newveh_ShelterA_2_359_110': 2554.0, 'newveh_ShelterA_2_358_109': 2563.0, 'newveh_ShelterA_2_360_111': 2573.0, 'newveh_ShelterA_2_382_115': 2583.0, 'newveh_ShelterA_2_380_114': 2592.0, 'newveh_ShelterA_2_371_116': 2602.0, 'newveh_ShelterA_2_386_123': 2612.0, 'newveh_ShelterA_2_385_122': 2621.0, 'newveh_ShelterA_2_384_121': 2631.0, 'newveh_ShelterA_2_383_120': 2640.0, 'newveh_ShelterA_2_375_119': 2646.0, 'newveh_ShelterA_2_373_118': 2651.0, 'newveh_ShelterA_2_372_117': 2655.0}
vehicle_abandant_time_by_pedestrianID_dict:{}
walking_distance_by_pedestrianID_dict:{}
route_change_time_by_vehID_dict:{'init_ShelterA_1_59': 460.0, 'init_ShelterA_1_60': 460.0, 'init_ShelterA_1_61': 460.0, 'init_ShelterA_1_62': 460.0, 'init_ShelterA_1_63': 460.0, 'init_ShelterA_1_64': 460.0, 'init_ShelterA_1_65': 460.0, 'init_ShelterA_1_66': 460.0, 'init_ShelterA_1_67': 460.0, 'init_ShelterA_1_68': 460.0, 'init_ShelterA_1_69': 460.0, 'init_ShelterA_1_70': 460.0, 'init_ShelterA_1_72': 490.0, 'init_ShelterA_1_73': 490.0, 'init_ShelterA_2_86': 490.0, 'init_ShelterA_1_71': 500.0, 'init_ShelterA_1_75': 500.0, 'init_ShelterA_1_79': 500.0, 'init_ShelterA_1_85': 500.0, 'init_ShelterA_2_76': 500.0, 'init_ShelterA_1_78': 510.0, 'init_ShelterA_1_81': 510.0, 'init_ShelterA_1_82': 510.0, 'init_ShelterA_1_84': 510.0, 'init_ShelterA_1_77': 520.0, 'init_ShelterA_1_80': 520.0, 'init_ShelterA_1_83': 520.0, 'init_ShelterA_1_87': 520.0, 'init_ShelterA_1_88': 520.0, 'init_ShelterA_1_89': 520.0, 'init_ShelterA_2_108': 570.0, 'init_ShelterA_1_90': 580.0, 'init_ShelterA_1_91': 580.0, 'init_ShelterA_1_92': 580.0, 'init_ShelterA_1_94': 580.0, 'init_ShelterA_1_95': 590.0, 'init_ShelterA_1_96': 600.0, 'init_ShelterA_1_100': 610.0, 'init_ShelterA_1_101': 610.0, 'init_ShelterA_1_102': 610.0, 'init_ShelterA_1_104': 610.0, 'init_ShelterA_1_106': 610.0, 'init_ShelterA_1_107': 610.0, 'init_ShelterA_1_93': 610.0, 'init_ShelterA_1_97': 610.0, 'init_ShelterA_1_98': 610.0, 'init_ShelterA_1_99': 610.0, 'init_ShelterA_2_117': 650.0, 'init_ShelterA_2_109': 660.0, 'init_ShelterA_1_113': 670.0, 'init_ShelterA_1_115': 670.0, 'init_ShelterA_1_116': 670.0, 'init_ShelterA_2_118': 670.0, 'init_ShelterA_1_110': 680.0, 'init_ShelterA_1_111': 680.0, 'init_ShelterA_1_114': 680.0, 'init_ShelterA_1_119': 680.0, 'init_ShelterA_1_120': 680.0, 'init_ShelterA_1_112': 690.0, 'init_ShelterA_1_121': 690.0, 'init_ShelterA_1_125': 700.0, 'init_ShelterA_1_126': 700.0, 'init_ShelterA_2_123': 700.0, 'init_ShelterA_1_122': 710.0, 'init_ShelterA_1_124': 710.0, 'init_ShelterA_2_129': 740.0, 'init_ShelterA_1_127': 750.0, 'init_ShelterA_1_128': 750.0, 'init_ShelterA_1_130': 750.0, 'init_ShelterA_1_131': 760.0, 'init_ShelterA_1_132': 760.0, 'init_ShelterA_1_133': 760.0, 'init_ShelterA_1_134': 760.0, 'init_ShelterA_1_136': 760.0, 'init_ShelterA_2_138': 760.0, 'init_ShelterA_1_135': 770.0, 'init_ShelterA_1_137': 770.0, 'init_ShelterA_1_140': 770.0, 'init_ShelterA_1_139': 780.0, 'init_ShelterA_1_143': 780.0, 'init_ShelterA_1_144': 780.0, 'init_ShelterA_2_151': 820.0, 'init_ShelterA_2_153': 820.0, 'init_ShelterA_1_154': 830.0, 'init_ShelterA_1_145': 840.0, 'init_ShelterA_1_141': 850.0, 'init_ShelterA_1_146': 850.0, 'init_ShelterA_1_148': 850.0, 'init_ShelterA_1_147': 860.0, 'init_ShelterA_1_149': 860.0, 'init_ShelterA_1_152': 860.0, 'init_ShelterA_1_157': 870.0, 'init_ShelterA_1_158': 870.0, 'init_ShelterA_1_159': 870.0, 'init_ShelterA_1_161': 880.0, 'init_ShelterA_1_162': 880.0, 'init_ShelterA_1_156': 890.0, 'init_ShelterA_1_160': 890.0, 'init_ShelterA_1_205': 890.0, 'init_ShelterA_1_206': 890.0, 'init_ShelterA_1_207': 890.0, 'init_ShelterA_1_208': 890.0, 'init_ShelterA_1_209': 890.0, 'init_ShelterA_1_210': 890.0, 'init_ShelterA_1_212': 890.0, 'init_ShelterA_1_213': 890.0, 'init_ShelterA_1_215': 890.0, 'init_ShelterA_1_216': 890.0, 'init_ShelterA_1_217': 890.0, 'init_ShelterA_1_218': 890.0, 'init_ShelterA_1_219': 890.0, 'init_ShelterA_1_221': 890.0, 'init_ShelterA_1_222': 890.0, 'init_ShelterA_1_223': 890.0, 'init_ShelterA_1_224': 890.0, 'init_ShelterA_1_225': 890.0, 'init_ShelterA_1_226': 890.0, 'init_ShelterA_1_227': 890.0, 'init_ShelterA_1_228': 890.0, 'init_ShelterA_1_229': 890.0, 'init_ShelterA_2_169': 890.0, 'init_ShelterA_2_195': 890.0, 'init_ShelterA_2_211': 890.0, 'init_ShelterA_2_214': 890.0, 'init_ShelterA_2_220': 890.0, 'init_ShelterA_2_230': 890.0, 'init_ShelterA_1_231': 900.0, 'init_ShelterA_2_178': 900.0, 'init_ShelterA_1_150': 910.0, 'init_ShelterA_1_177': 910.0, 'init_ShelterA_1_164': 920.0, 'init_ShelterA_1_176': 920.0, 'init_ShelterA_1_163': 930.0, 'init_ShelterA_1_167': 930.0, 'init_ShelterA_1_168': 930.0, 'init_ShelterA_1_170': 930.0, 'init_ShelterA_2_172': 930.0, 'init_ShelterA_1_165': 940.0, 'init_ShelterA_1_166': 940.0, 'init_ShelterA_1_171': 940.0, 'init_ShelterA_1_173': 940.0, 'init_ShelterA_1_174': 940.0, 'init_ShelterA_1_175': 940.0, 'init_ShelterA_1_179': 950.0, 'init_ShelterA_1_180': 950.0, 'init_ShelterA_2_185': 950.0, 'init_ShelterA_1_181': 980.0, 'init_ShelterA_1_183': 980.0, 'init_ShelterA_1_182': 990.0, 'init_ShelterA_1_184': 990.0, 'init_ShelterA_1_186': 990.0, 'init_ShelterA_2_191': 1000.0, 'init_ShelterA_1_187': 1020.0, 'init_ShelterA_1_189': 1020.0, 'init_ShelterA_1_192': 1020.0, 'init_ShelterA_1_188': 1030.0, 'init_ShelterA_1_190': 1030.0, 'init_ShelterA_1_193': 1030.0, 'init_ShelterA_1_194': 1040.0, 'init_ShelterA_1_196': 1040.0, 'init_ShelterA_1_197': 1040.0, 'init_ShelterA_1_241': 1050.0, 'init_ShelterA_1_244': 1050.0, 'init_ShelterA_1_251': 1050.0, 'init_ShelterA_1_252': 1050.0, 'init_ShelterA_1_253': 1050.0, 'init_ShelterA_2_250': 1050.0, 'init_ShelterA_1_242': 1060.0, 'init_ShelterA_1_243': 1060.0, 'init_ShelterA_1_246': 1060.0, 'init_ShelterA_1_255': 1060.0, 'init_ShelterA_1_256': 1060.0, 'init_ShelterA_1_257': 1060.0, 'init_ShelterA_2_254': 1060.0, 'init_ShelterA_1_259': 1070.0, 'init_ShelterA_1_260': 1070.0, 'init_ShelterA_1_261': 1070.0, 'init_ShelterA_2_258': 1070.0, 'init_ShelterA_1_202': 1110.0, 'init_ShelterA_1_199': 1120.0, 'init_ShelterA_1_204': 1120.0, 'init_ShelterA_1_232': 1120.0, 'init_ShelterA_1_198': 1130.0, 'init_ShelterA_1_200': 1130.0, 'init_ShelterA_1_236': 1130.0, 'init_ShelterA_1_237': 1130.0, 'init_ShelterA_1_238': 1130.0, 'init_ShelterA_1_239': 1130.0, 'init_ShelterA_1_240': 1130.0, 'init_ShelterA_1_235': 1140.0, 'init_ShelterA_1_285': 1140.0, 'init_ShelterA_1_234': 1150.0, 'init_ShelterA_1_279': 1150.0, 'init_ShelterA_1_281': 1150.0, 'init_ShelterA_1_283': 1150.0, 'init_ShelterA_1_286': 1150.0, 'init_ShelterA_1_287': 1150.0, 'init_ShelterA_1_288': 1150.0, 'init_ShelterA_2_276': 1150.0, 'init_ShelterA_1_278': 1160.0, 'init_ShelterA_1_280': 1160.0, 'init_ShelterA_1_282': 1160.0, 'init_ShelterA_1_284': 1160.0, 'init_ShelterA_1_201': 1180.0, 'init_ShelterA_1_203': 1180.0, 'init_ShelterA_1_233': 1180.0, 'init_ShelterA_1_296': 1200.0, 'init_ShelterA_1_293': 1210.0, 'init_ShelterA_1_297': 1210.0, 'init_ShelterA_1_298': 1210.0, 'init_ShelterA_1_299': 1210.0, 'init_ShelterA_1_300': 1210.0, 'init_ShelterA_1_292': 1220.0, 'init_ShelterA_1_294': 1220.0, 'init_ShelterA_1_301': 1220.0, 'init_ShelterA_1_302': 1220.0, 'init_ShelterA_1_303': 1220.0, 'init_ShelterA_1_304': 1220.0, 'init_ShelterA_1_305': 1230.0, 'init_ShelterA_1_307': 1230.0, 'init_ShelterA_1_308': 1230.0, 'init_ShelterA_2_306': 1230.0, 'init_ShelterA_1_310': 1240.0, 'init_ShelterA_1_311': 1240.0, 'init_ShelterA_1_312': 1240.0, 'init_ShelterA_1_262': 1260.0, 'init_ShelterA_1_263': 1260.0, 'init_ShelterA_1_264': 1270.0, 'init_ShelterA_1_265': 1270.0, 'init_ShelterA_1_266': 1270.0, 'init_ShelterA_1_267': 1270.0, 'init_ShelterA_1_248': 1280.0, 'init_ShelterA_2_268': 1280.0, 'init_ShelterA_1_270': 1300.0, 'init_ShelterA_1_271': 1300.0, 'init_ShelterA_1_272': 1300.0, 'init_ShelterA_1_273': 1300.0, 'init_ShelterA_1_275': 1300.0, 'init_ShelterA_1_320': 1300.0, 'init_ShelterA_2_321': 1300.0, 'init_ShelterA_1_322': 1310.0, 'init_ShelterA_1_249': 1330.0, 'init_ShelterA_1_274': 1350.0, 'init_ShelterA_1_277': 1350.0, 'init_ShelterA_2_328': 1360.0, 'init_ShelterA_1_247': 1370.0, 'init_ShelterA_1_269': 1370.0, 'init_ShelterA_1_327': 1370.0, 'init_ShelterA_1_335': 1400.0, 'init_ShelterA_1_336': 1400.0, 'init_ShelterA_1_337': 1400.0, 'init_ShelterA_1_338': 1400.0, 'init_ShelterA_2_334': 1400.0, 'init_ShelterA_1_290': 1440.0, 'init_ShelterA_1_313': 1440.0, 'init_ShelterA_1_314': 1440.0, 'init_ShelterA_1_315': 1440.0, 'init_ShelterA_1_316': 1440.0, 'init_ShelterA_1_319': 1470.0, 'init_ShelterA_2_348': 1470.0, 'init_ShelterA_1_317': 1480.0, 'init_ShelterA_1_318': 1480.0, 'init_ShelterA_1_324': 1480.0, 'init_ShelterA_1_342': 1480.0, 'init_ShelterA_1_343': 1480.0, 'init_ShelterA_1_349': 1480.0, 'init_ShelterA_1_350': 1480.0, 'init_ShelterA_1_351': 1480.0, 'init_ShelterA_2_352': 1480.0, 'init_ShelterA_1_345': 1490.0, 'init_ShelterA_1_346': 1490.0, 'init_ShelterA_1_347': 1490.0, 'init_ShelterA_1_353': 1490.0, 'init_ShelterA_1_354': 1490.0, 'init_ShelterA_1_355': 1490.0, 'init_ShelterA_1_356': 1490.0, 'init_ShelterA_1_358': 1500.0, 'init_ShelterA_1_359': 1500.0, 'init_ShelterA_1_360': 1500.0, 'init_ShelterA_1_323': 1530.0, 'init_ShelterA_1_326': 1530.0, 'init_ShelterA_1_309': 1540.0, 'init_ShelterA_1_330': 1560.0, 'init_ShelterA_1_332': 1560.0, 'init_ShelterA_1_331': 1570.0, 'init_ShelterA_1_341': 1570.0, 'init_ShelterA_1_380': 1570.0, 'init_ShelterA_1_382': 1570.0, 'init_ShelterA_1_371': 1580.0, 'init_ShelterA_1_372': 1580.0, 'init_ShelterA_1_373': 1580.0, 'init_ShelterA_1_375': 1580.0, 'init_ShelterA_1_383': 1580.0, 'init_ShelterA_1_384': 1580.0, 'init_ShelterA_1_385': 1580.0, 'init_ShelterA_1_386': 1580.0, 'init_ShelterA_2_390': 1590.0, 'init_ShelterA_1_339': 1610.0, 'init_ShelterA_1_340': 1610.0, 'init_ShelterA_2_396': 1610.0, 'init_ShelterA_1_395': 1620.0, 'init_ShelterA_1_329': 1650.0, 'init_ShelterA_1_361': 1650.0, 'init_ShelterA_1_363': 1650.0, 'init_ShelterA_1_364': 1650.0, 'init_ShelterA_1_365': 1650.0, 'init_ShelterA_1_367': 1660.0, 'init_ShelterA_1_362': 1700.0, 'init_ShelterA_2_369': 1770.0, 'init_ShelterA_1_368': 1790.0, 'init_ShelterA_1_374': 1790.0, 'init_ShelterA_1_378': 1790.0, 'init_ShelterA_1_379': 1790.0, 'init_ShelterA_1_387': 1790.0, 'init_ShelterA_1_393': 1790.0, 'init_ShelterA_1_370': 1800.0, 'init_ShelterA_1_376': 1800.0, 'init_ShelterA_1_381': 1800.0, 'init_ShelterA_1_391': 1800.0, 'init_ShelterA_1_392': 1800.0, 'init_ShelterA_1_366': 1820.0, 'init_ShelterA_1_397': 1820.0, 'init_ShelterA_1_399': 1820.0, 'init_ShelterA_1_389': 1840.0, 'init_ShelterA_1_377': 1850.0}
pedestrian_count:0
route_changed_vehicle_count:325
route_change_event_count:325
rate_vehicle_abandonment:0.00%
wrong_way_driving_count:0
vehicle_abandonment_count:0
normalcy_bias_route_change_count:222
majority_bias_route_change_count:103
lane_changed_vehicle_count:0
info_obtained_lanechange_count:0
elapsed_time_lanechange_count:0
majority_bias_lanechange_count:0

=== Job Result ===
end=2026-07-13T02:06:20+0900
elapsed_seconds=328
exit_code=0
status=SUCCESS
