=== Job Info ===
job_name=va_s7_e1.0_v1.0_r21
host=schubert
pid=122562
scenario=7
early_rate=1.0
v2v_rate=1.0
run_id=21
config=/home/katagi/vehicle-assistant-system/scenarios/JIP/configs/config_scenario_7.toml
output_dir=/home/katagi/vehicle-assistant-system/schubert_logs/va_s7_e1.0_v1.0_r21
start=2026-07-13T02:06:34+0900
python_version=Python 3.12.3
sumo_version=Eclipse SUMO sumo Version v1_23_1+0435-630512a

=== Command ===
cd /home/katagi/vehicle-assistant-system/schubert_logs/va_s7_e1.0_v1.0_r21
PYTHONPATH=/home/katagi/vehicle-assistant-system:/home/katagi/tmp/sumo/tools:/home/katagi/local/sumo/tools:/home/katagi/tmp/sumo/tools:/home/katagi/local/sumo/tools:/home/katagi/tmp/sumo/tools:/home/katagi/local/sumo/tools: python3 -W ignore::UserWarning -m scenarios.JIP.1-1-4.simulation.runner_simulator --nogui /home/katagi/vehicle-assistant-system/scenarios/JIP/configs/config_scenario_7.toml 1.0 1.0
simulation_pid=122582
Step #0.00 (0ms ?*RT. ?UPS, TraCI: 336ms, vehicles TOT 1 ACT 1 BUF 0)                     Step #100.00 (0ms ?*RT. ?UPS, TraCI: 17ms, vehicles TOT 26 ACT 26 BUF 0)                  Step #200.00 (0ms ?*RT. ?UPS, TraCI: 37ms, vehicles TOT 51 ACT 51 BUF 0)                  Step #300.00 (0ms ?*RT. ?UPS, TraCI: 55ms, vehicles TOT 77 ACT 77 BUF 0)                  Step #400.00 (0ms ?*RT. ?UPS, TraCI: 1466ms, vehicles TOT 104 ACT 104 BUF 0)              Step #500.00 (1ms ~= 1000.00*RT, ~131000.00UPS, TraCI: 1331ms, vehicles TOT 131 ACT 131 BUStep #600.00 (0ms ?*RT. ?UPS, TraCI: 722ms, vehicles TOT 158 ACT 158 BUF 0)               Step #700.00 (0ms ?*RT. ?UPS, TraCI: 480ms, vehicles TOT 186 ACT 186 BUF 0)               Step #800.00 (0ms ?*RT. ?UPS, TraCI: 1607ms, vehicles TOT 225 ACT 192 BUF 23)             Step #900.00 (0ms ?*RT. ?UPS, TraCI: 1049ms, vehicles TOT 249 ACT 215 BUF 29)             Step #1000.00 (0ms ?*RT. ?UPS, TraCI: 1149ms, vehicles TOT 284 ACT 236 BUF 38)            Step #1100.00 (1ms ~= 1000.00*RT, ~257000.00UPS, TraCI: 1034ms, vehicles TOT 316 ACT 257 BStep #1200.00 (1ms ~= 1000.00*RT, ~285000.00UPS, TraCI: 1366ms, vehicles TOT 359 ACT 285 BStep #1300.00 (1ms ~= 1000.00*RT, ~302000.00UPS, TraCI: 1649ms, vehicles TOT 394 ACT 302 BStep #1400.00 (1ms ~= 1000.00*RT, ~324000.00UPS, TraCI: 2469ms, vehicles TOT 421 ACT 324 BStep #1500.00 (1ms ~= 1000.00*RT, ~338000.00UPS, TraCI: 1598ms, vehicles TOT 456 ACT 338 BStep #1600.00 (0ms ?*RT. ?UPS, TraCI: 1459ms, vehicles TOT 495 ACT 362 BUF 38)            Step #1700.00 (1ms ~= 1000.00*RT, ~382000.00UPS, TraCI: 870ms, vehicles TOT 522 ACT 382 BUStep #1800.00 (1ms ~= 1000.00*RT, ~400000.00UPS, TraCI: 1340ms, vehicles TOT 543 ACT 400 BStep #1900.00 (0ms ?*RT. ?UPS, TraCI: 361ms, vehicles TOT 543 ACT 400 BUF 0)              Step #2000.00 (1ms ~= 1000.00*RT, ~400000.00UPS, TraCI: 261ms, vehicles TOT 543 ACT 400 BUStep #2100.00 (1ms ~= 1000.00*RT, ~400000.00UPS, TraCI: 124ms, vehicles TOT 543 ACT 400 BUStep #2200.00 (1ms ~= 1000.00*RT, ~400000.00UPS, TraCI: 113ms, vehicles TOT 543 ACT 400 BUStep #2300.00 (1ms ~= 1000.00*RT, ~400000.00UPS, TraCI: 100ms, vehicles TOT 543 ACT 400 BUStep #2400.00 (0ms ?*RT. ?UPS, TraCI: 98ms, vehicles TOT 543 ACT 400 BUF 0)               Step #2500.00 (0ms ?*RT. ?UPS, TraCI: 84ms, vehicles TOT 543 ACT 400 BUF 0)               Step #2600.00 (0ms ?*RT. ?UPS, TraCI: 75ms, vehicles TOT 543 ACT 400 BUF 0)               Step #2700.00 (0ms ?*RT. ?UPS, TraCI: 75ms, vehicles TOT 543 ACT 400 BUF 0)               Step #2800.00 (0ms ?*RT. ?UPS, TraCI: 77ms, vehicles TOT 543 ACT 400 BUF 0)               Step #2900.00 (0ms ?*RT. ?UPS, TraCI: 78ms, vehicles TOT 543 ACT 400 BUF 0)               Step #3000.00 (1ms ~= 1000.00*RT, ~400000.00UPS, TraCI: 77ms, vehicles TOT 543 ACT 400 BUF
 Retrying in 1 seconds
出現数: {'A1': 357, 'A2': 43}
割合:
  Total: 400
  A1: 357 (89.25%)
  A2: 43 (10.75%)
  B1: 0 (0.00%)
  B2: 0 (0.00%)
mean elapsed_time: 583.3725
OK all vehs arrived 
平均渋滞継続時間: 507.18秒
OK all vehicle abandonment were detected
258
142
===== Simlation Result Summary =====
avg_congestion_duration: 507.18 
arrival_time_by_vehID_dict:{'init_ShelterA_1_0': 201.0, 'init_ShelterA_1_2': 226.0, 'init_ShelterA_1_3': 234.0, 'init_ShelterA_1_4': 239.0, 'init_ShelterA_1_5': 244.0, 'init_ShelterA_1_6': 283.0, 'init_ShelterA_1_7': 290.0, 'init_ShelterA_1_8': 295.0, 'init_ShelterA_1_9': 300.0, 'init_ShelterA_1_10': 307.0, 'init_ShelterA_1_11': 313.0, 'init_ShelterA_1_12': 320.0, 'init_ShelterA_1_13': 327.0, 'init_ShelterA_1_14': 336.0, 'init_ShelterA_2_1': 343.0, 'init_ShelterA_1_15': 345.0, 'init_ShelterA_1_16': 354.0, 'init_ShelterA_1_18': 363.0, 'init_ShelterA_1_19': 371.0, 'init_ShelterA_1_20': 379.0, 'init_ShelterA_1_21': 388.0, 'init_ShelterA_1_22': 397.0, 'init_ShelterA_2_17': 402.0, 'init_ShelterA_1_23': 406.0, 'init_ShelterA_1_24': 416.0, 'init_ShelterA_1_25': 425.0, 'init_ShelterA_1_26': 435.0, 'init_ShelterA_1_27': 444.0, 'init_ShelterA_1_28': 454.0, 'init_ShelterA_1_29': 464.0, 'init_ShelterA_1_30': 473.0, 'init_ShelterA_2_31': 474.0, 'init_ShelterA_1_32': 483.0, 'init_ShelterA_1_33': 493.0, 'init_ShelterA_1_34': 502.0, 'init_ShelterA_1_35': 512.0, 'init_ShelterA_1_36': 522.0, 'init_ShelterA_1_37': 531.0, 'init_ShelterA_1_40': 533.0, 'init_ShelterA_1_38': 541.0, 'init_ShelterA_1_42': 543.0, 'init_ShelterA_1_39': 549.0, 'init_ShelterA_2_41': 551.0, 'init_ShelterA_2_46': 554.0, 'init_ShelterA_2_54': 557.0, 'init_ShelterA_1_58': 563.0, 'init_ShelterA_1_43': 567.0, 'init_ShelterA_1_59': 568.0, 'init_ShelterA_1_44': 570.0, 'init_ShelterA_1_45': 573.0, 'init_ShelterA_1_61': 575.0, 'init_ShelterA_1_62': 579.0, 'init_ShelterA_2_63': 582.0, 'init_ShelterA_1_47': 588.0, 'init_ShelterA_1_48': 590.0, 'init_ShelterA_1_49': 593.0, 'init_ShelterA_1_50': 603.0, 'init_ShelterA_1_51': 605.0, 'init_ShelterA_1_52': 608.0, 'init_ShelterA_1_53': 611.0, 'init_ShelterA_1_55': 614.0, 'init_ShelterA_1_56': 623.0, 'init_ShelterA_1_57': 625.0, 'init_ShelterA_1_60': 630.0, 'init_ShelterA_1_80': 659.0, 'init_ShelterA_1_64': 661.0, 'init_ShelterA_2_81': 662.0, 'init_ShelterA_1_65': 663.0, 'init_ShelterA_2_82': 664.0, 'init_ShelterA_2_84': 667.0, 'init_ShelterA_1_66': 670.0, 'init_ShelterA_1_67': 683.0, 'init_ShelterA_1_68': 685.0, 'init_ShelterA_1_69': 689.0, 'init_ShelterA_1_70': 692.0, 'init_ShelterA_1_71': 694.0, 'init_ShelterA_1_72': 697.0, 'init_ShelterA_2_93': 731.0, 'init_ShelterA_1_73': 737.0, 'init_ShelterA_1_74': 739.0, 'init_ShelterA_1_75': 752.0, 'init_ShelterA_1_98': 754.0, 'init_ShelterA_1_76': 755.0, 'init_ShelterA_2_103': 756.0, 'init_ShelterA_1_77': 757.0, 'init_ShelterA_1_78': 760.0, 'init_ShelterA_1_79': 763.0, 'init_ShelterA_2_106': 768.0, 'init_ShelterA_1_83': 771.0, 'init_ShelterA_1_85': 773.0, 'init_ShelterA_1_86': 775.0, 'init_ShelterA_1_87': 778.0, 'init_ShelterA_1_88': 781.0, 'init_ShelterA_1_89': 784.0, 'init_ShelterA_1_90': 812.0, 'init_ShelterA_1_91': 820.0, 'init_ShelterA_1_92': 822.0, 'init_ShelterA_1_94': 825.0, 'init_ShelterA_1_95': 833.0, 'init_ShelterA_1_116': 839.0, 'init_ShelterA_1_96': 847.0, 'init_ShelterA_1_120': 849.0, 'init_ShelterA_1_97': 857.0, 'init_ShelterA_1_99': 858.0, 'init_ShelterA_1_100': 860.0, 'init_ShelterA_1_101': 863.0, 'init_ShelterA_1_102': 868.0, 'init_ShelterA_1_104': 870.0, 'init_ShelterA_1_105': 872.0, 'init_ShelterA_1_107': 898.0, 'init_ShelterA_2_124': 902.0, 'init_ShelterA_1_127': 918.0, 'init_ShelterA_2_130': 920.0, 'init_ShelterA_2_133': 925.0, 'init_ShelterA_1_108': 933.0, 'init_ShelterA_1_109': 935.0, 'init_ShelterA_1_110': 937.0, 'init_ShelterA_1_111': 940.0, 'init_ShelterA_1_112': 943.0, 'init_ShelterA_1_113': 946.0, 'init_ShelterA_1_114': 953.0, 'init_ShelterA_1_115': 962.0, 'init_ShelterA_1_117': 964.0, 'init_ShelterA_1_118': 966.0, 'init_ShelterA_1_119': 969.0, 'init_ShelterA_1_121': 973.0, 'init_ShelterA_1_122': 975.0, 'init_ShelterA_2_139': 991.0, 'init_ShelterA_1_123': 999.0, 'init_ShelterA_1_143': 1011.0, 'init_ShelterA_2_150': 1016.0, 'init_ShelterA_1_125': 1034.0, 'init_ShelterA_1_126': 1036.0, 'init_ShelterA_1_128': 1038.0, 'init_ShelterA_1_153': 1039.0, 'init_ShelterA_1_129': 1040.0, 'init_ShelterA_1_131': 1043.0, 'init_ShelterA_1_132': 1046.0, 'init_ShelterA_1_134': 1049.0, 'init_ShelterA_1_135': 1052.0, 'init_ShelterA_1_136': 1055.0, 'init_ShelterA_1_137': 1062.0, 'init_ShelterA_1_138': 1064.0, 'init_ShelterA_1_140': 1073.0, 'init_ShelterA_1_141': 1087.0, 'init_ShelterA_1_156': 1094.0, 'init_ShelterA_1_142': 1095.0, 'init_ShelterA_1_157': 1106.0, 'init_ShelterA_1_144': 1112.0, 'init_ShelterA_1_145': 1114.0, 'init_ShelterA_1_146': 1116.0, 'init_ShelterA_1_147': 1118.0, 'init_ShelterA_1_163': 1118.0, 'init_ShelterA_1_148': 1120.0, 'init_ShelterA_1_149': 1123.0, 'init_ShelterA_1_188': 1124.0, 'init_ShelterA_1_151': 1126.0, 'init_ShelterA_1_152': 1129.0, 'init_ShelterA_1_154': 1132.0, 'init_ShelterA_1_155': 1137.0, 'init_ShelterA_1_158': 1190.0, 'newveh_ShelterA_1_182_21': 1199.0, 'init_ShelterA_1_159': 1200.0, 'init_ShelterA_1_160': 1205.0, 'init_ShelterA_1_161': 1207.0, 'init_ShelterA_1_162': 1209.0, 'init_ShelterA_1_164': 1212.0, 'init_ShelterA_1_165': 1214.0, 'init_ShelterA_1_166': 1216.0, 'newveh_ShelterA_1_174_20': 1218.0, 'init_ShelterA_1_167': 1219.0, 'init_ShelterA_1_168': 1222.0, 'newveh_ShelterA_2_169_0': 1240.0, 'newveh_ShelterA_2_191_18': 1246.0, 'newveh_ShelterA_2_190_17': 1250.0, 'newveh_ShelterA_1_171_19': 1285.0, 'newveh_ShelterA_2_189_16': 1291.0, 'init_ShelterA_1_206': 1292.0, 'init_ShelterA_1_208': 1302.0, 'newveh_ShelterA_2_187_15': 1307.0, 'newveh_ShelterA_2_186_14': 1314.0, 'newveh_ShelterA_2_185_13': 1320.0, 'newveh_ShelterA_2_184_12': 1325.0, 'newveh_ShelterA_2_183_11': 1331.0, 'newveh_ShelterA_2_181_10': 1337.0, 'newveh_ShelterA_2_180_9': 1344.0, 'newveh_ShelterA_2_179_8': 1351.0, 'newveh_ShelterA_2_178_7': 1359.0, 'init_ShelterA_1_212': 1365.0, 'newveh_ShelterA_2_177_6': 1367.0, 'newveh_ShelterA_2_176_5': 1375.0, 'newveh_ShelterA_2_175_4': 1384.0, 'init_ShelterA_1_221': 1393.0, 'newveh_ShelterA_2_173_3': 1393.0, 'init_ShelterA_1_225': 1401.0, 'newveh_ShelterA_2_217_58': 1402.0, 'newveh_ShelterA_1_207_33': 1405.0, 'newveh_ShelterA_2_172_2': 1411.0, 'newveh_ShelterA_2_170_1': 1421.0, 'newveh_ShelterA_2_192_22': 1435.0, 'init_ShelterA_1_203': 1437.0, 'init_ShelterA_1_204': 1439.0, 'init_ShelterA_1_205': 1441.0, 'newveh_ShelterA_2_196_24': 1449.0, 'init_ShelterA_1_231': 1455.0, 'newveh_ShelterA_2_193_23': 1458.0, 'init_ShelterA_1_236': 1463.0, 'init_ShelterA_1_238': 1471.0, 'newveh_ShelterA_2_199_25': 1472.0, 'init_ShelterA_1_209': 1475.0, 'init_ShelterA_1_242': 1476.0, 'init_ShelterA_1_210': 1477.0, 'init_ShelterA_1_211': 1479.0, 'init_ShelterA_1_250': 1481.0, 'newveh_ShelterA_2_201_26': 1487.0, 'init_ShelterA_1_252': 1488.0, 'init_ShelterA_1_254': 1494.0, 'newveh_ShelterA_2_218_63': 1495.0, 'init_ShelterA_1_213': 1498.0, 'newveh_ShelterA_1_226_34': 1501.0, 'init_ShelterA_1_265': 1506.0, 'newveh_ShelterA_2_194_27': 1507.0, 'init_ShelterA_1_214': 1509.0, 'init_ShelterA_1_266': 1510.0, 'newveh_ShelterA_2_195_28': 1519.0, 'newveh_ShelterA_2_197_29': 1528.0, 'newveh_ShelterA_2_202_32': 1538.0, 'newveh_ShelterA_2_198_30': 1547.0, 'init_ShelterA_1_271': 1567.0, 'newveh_ShelterA_2_200_31': 1569.0, 'init_ShelterA_1_215': 1571.0, 'init_ShelterA_1_216': 1573.0, 'init_ShelterA_1_219': 1575.0, 'init_ShelterA_1_220': 1577.0, 'init_ShelterA_1_222': 1579.0, 'newveh_ShelterA_2_247_71': 1586.0, 'newveh_ShelterA_2_232_70': 1592.0, 'newveh_ShelterA_2_223_69': 1600.0, 'newveh_ShelterA_2_248_72': 1609.0, 'newveh_ShelterA_2_267_89': 1618.0, 'newveh_ShelterA_2_253_88': 1627.0, 'init_ShelterA_1_285': 1630.0, 'newveh_ShelterA_2_251_87': 1649.0, 'init_ShelterA_1_229': 1651.0, 'init_ShelterA_1_234': 1653.0, 'newveh_ShelterA_1_259_48': 1654.0, 'init_ShelterA_1_246': 1655.0, 'init_ShelterA_1_249': 1657.0, 'init_ShelterA_1_291': 1659.0, 'init_ShelterA_1_292': 1664.0, 'newveh_ShelterA_2_224_35': 1665.0, 'newveh_ShelterA_2_237_37': 1669.0, 'newveh_ShelterA_2_235_36': 1674.0, 'newveh_ShelterA_2_241_44': 1680.0, 'newveh_ShelterA_2_240_43': 1688.0, 'newveh_ShelterA_2_239_42': 1696.0, 'newveh_ShelterA_2_227_38': 1704.0, 'newveh_ShelterA_2_233_41': 1713.0, 'newveh_ShelterA_2_230_40': 1722.0, 'init_ShelterA_1_307': 1726.0, 'newveh_ShelterA_2_228_39': 1731.0, 'newveh_ShelterA_1_277_60': 1732.0, 'init_ShelterA_1_309': 1738.0, 'newveh_ShelterA_2_245_47': 1741.0, 'init_ShelterA_1_310': 1744.0, 'newveh_ShelterA_2_244_46': 1750.0, 'newveh_ShelterA_1_269_61': 1751.0, 'newveh_ShelterA_1_270_59': 1758.0, 'init_ShelterA_1_311': 1765.0, 'newveh_ShelterA_1_278_62': 1769.0, 'newveh_ShelterA_2_243_45': 1772.0, 'init_ShelterA_1_272': 1774.0, 'init_ShelterA_1_313': 1774.0, 'init_ShelterA_1_273': 1776.0, 'init_ShelterA_1_276': 1779.0, 'init_ShelterA_1_281': 1780.0, 'init_ShelterA_1_282': 1783.0, 'newveh_ShelterA_2_268_95': 1790.0, 'newveh_ShelterA_2_275_96': 1795.0, 'init_ShelterA_2_330': 1813.0, 'newveh_ShelterA_2_293_103': 1817.0, 'init_ShelterA_1_286': 1819.0, 'init_ShelterA_1_287': 1821.0, 'init_ShelterA_1_288': 1823.0, 'init_ShelterA_1_289': 1825.0, 'init_ShelterA_1_290': 1827.0, 'newveh_ShelterA_1_294_73': 1833.0, 'newveh_ShelterA_2_255_49': 1834.0, 'newveh_ShelterA_2_264_57': 1839.0, 'newveh_ShelterA_2_263_56': 1847.0, 'newveh_ShelterA_2_262_55': 1856.0, 'newveh_ShelterA_2_261_54': 1866.0, 'newveh_ShelterA_2_260_53': 1875.0, 'newveh_ShelterA_2_258_52': 1885.0, 'newveh_ShelterA_2_257_51': 1895.0, 'newveh_ShelterA_2_314_119': 1904.0, 'newveh_ShelterA_2_256_50': 1914.0, 'newveh_ShelterA_1_305_85': 1922.0, 'newveh_ShelterA_2_283_66': 1924.0, 'newveh_ShelterA_2_280_65': 1933.0, 'newveh_ShelterA_1_308_86': 1938.0, 'newveh_ShelterA_1_317_90': 1942.0, 'newveh_ShelterA_2_279_64': 1943.0, 'init_ShelterA_2_364': 1945.0, 'newveh_ShelterA_2_284_67': 1954.0, 'init_ShelterA_1_321': 1956.0, 'init_ShelterA_1_322': 1958.0, 'newveh_ShelterA_2_274_68': 1968.0, 'newveh_ShelterA_2_312_118': 1978.0, 'newveh_ShelterA_2_323_121': 1987.0, 'newveh_ShelterA_2_324_122': 1997.0, 'newveh_ShelterA_1_319_91': 2001.0, 'init_ShelterA_2_368': 2004.0, 'newveh_ShelterA_2_320_120': 2007.0, 'newveh_ShelterA_2_336_133': 2016.0, 'init_ShelterA_1_385': 2022.0, 'newveh_ShelterA_2_339_134': 2037.0, 'init_ShelterA_1_325': 2040.0, 'init_ShelterA_1_326': 2042.0, 'init_ShelterA_1_327': 2044.0, 'init_ShelterA_1_328': 2046.0, 'init_ShelterA_1_329': 2048.0, 'init_ShelterA_1_331': 2050.0, 'init_ShelterA_1_333': 2053.0, 'init_ShelterA_1_334': 2055.0, 'init_ShelterA_1_335': 2057.0, 'init_ShelterA_1_338': 2060.0, 'init_ShelterA_1_340': 2063.0, 'newveh_ShelterA_2_295_74': 2072.0, 'newveh_ShelterA_2_296_75': 2078.0, 'init_ShelterA_1_394': 2083.0, 'newveh_ShelterA_2_299_77': 2086.0, 'newveh_ShelterA_2_297_76': 2095.0, 'newveh_ShelterA_2_365_139': 2104.0, 'newveh_ShelterA_2_303_80': 2113.0, 'newveh_ShelterA_1_353_110': 2122.0, 'newveh_ShelterA_2_302_79': 2123.0, 'newveh_ShelterA_2_301_78': 2133.0, 'init_ShelterA_1_345': 2135.0, 'newveh_ShelterA_2_298_81': 2145.0, 'init_ShelterA_1_346': 2147.0, 'newveh_ShelterA_2_306_84': 2157.0, 'newveh_ShelterA_2_300_82': 2167.0, 'newveh_ShelterA_1_360_116': 2182.0, 'newveh_ShelterA_1_359_115': 2189.0, 'newveh_ShelterA_2_304_83': 2189.0, 'init_ShelterA_1_358': 2192.0, 'init_ShelterA_1_362': 2194.0, 'init_ShelterA_1_363': 2196.0, 'newveh_ShelterA_1_361_117': 2196.0, 'init_ShelterA_1_366': 2198.0, 'newveh_ShelterA_1_374_123': 2200.0, 'newveh_ShelterA_1_386_132': 2204.0, 'newveh_ShelterA_2_387_141': 2204.0, 'newveh_ShelterA_2_380_140': 2210.0, 'newveh_ShelterA_2_315_92': 2220.0, 'init_ShelterA_1_367': 2222.0, 'init_ShelterA_1_369': 2224.0, 'newveh_ShelterA_2_318_94': 2233.0, 'newveh_ShelterA_2_316_93': 2255.0, 'init_ShelterA_1_371': 2257.0, 'init_ShelterA_1_373': 2260.0, 'init_ShelterA_1_377': 2262.0, 'init_ShelterA_1_379': 2264.0, 'init_ShelterA_1_388': 2266.0, 'init_ShelterA_1_389': 2268.0, 'init_ShelterA_1_390': 2270.0, 'newveh_ShelterA_1_399_135': 2270.0, 'init_ShelterA_1_391': 2272.0, 'init_ShelterA_1_392': 2274.0, 'newveh_ShelterA_2_375_142': 2286.0, 'init_ShelterA_1_393': 2288.0, 'init_ShelterA_1_395': 2290.0, 'newveh_ShelterA_2_332_97': 2299.0, 'newveh_ShelterA_2_344_102': 2307.0, 'newveh_ShelterA_2_343_101': 2315.0, 'newveh_ShelterA_2_342_100': 2325.0, 'newveh_ShelterA_2_341_99': 2334.0, 'newveh_ShelterA_2_348_105': 2344.0, 'newveh_ShelterA_2_337_98': 2353.0, 'newveh_ShelterA_2_347_104': 2363.0, 'newveh_ShelterA_2_349_106': 2373.0, 'newveh_ShelterA_2_352_109': 2383.0, 'newveh_ShelterA_2_351_108': 2392.0, 'newveh_ShelterA_2_350_107': 2402.0, 'newveh_ShelterA_2_356_113': 2412.0, 'newveh_ShelterA_2_355_112': 2421.0, 'newveh_ShelterA_2_354_111': 2431.0, 'newveh_ShelterA_2_357_114': 2441.0, 'newveh_ShelterA_2_378_125': 2450.0, 'newveh_ShelterA_2_372_124': 2460.0, 'newveh_ShelterA_2_370_126': 2470.0, 'newveh_ShelterA_2_384_131': 2479.0, 'newveh_ShelterA_2_383_130': 2489.0, 'newveh_ShelterA_2_382_129': 2499.0, 'newveh_ShelterA_2_381_128': 2509.0, 'newveh_ShelterA_2_396_136': 2518.0, 'newveh_ShelterA_2_376_127': 2524.0, 'newveh_ShelterA_2_398_138': 2529.0, 'newveh_ShelterA_2_397_137': 2533.0}
vehicle_abandant_time_by_pedestrianID_dict:{}
walking_distance_by_pedestrianID_dict:{}
route_change_time_by_vehID_dict:{'init_ShelterA_2_46': 350.0, 'init_ShelterA_1_44': 360.0, 'init_ShelterA_1_47': 360.0, 'init_ShelterA_1_48': 360.0, 'init_ShelterA_2_41': 360.0, 'init_ShelterA_1_40': 370.0, 'init_ShelterA_1_42': 370.0, 'init_ShelterA_1_43': 370.0, 'init_ShelterA_1_45': 370.0, 'init_ShelterA_1_49': 370.0, 'init_ShelterA_1_50': 370.0, 'init_ShelterA_1_51': 370.0, 'init_ShelterA_1_52': 370.0, 'init_ShelterA_1_53': 370.0, 'init_ShelterA_2_54': 370.0, 'init_ShelterA_2_63': 400.0, 'init_ShelterA_1_55': 410.0, 'init_ShelterA_1_56': 420.0, 'init_ShelterA_1_57': 420.0, 'init_ShelterA_1_71': 440.0, 'init_ShelterA_1_67': 460.0, 'init_ShelterA_1_70': 460.0, 'init_ShelterA_1_72': 460.0, 'init_ShelterA_1_64': 470.0, 'init_ShelterA_1_66': 470.0, 'init_ShelterA_1_69': 470.0, 'init_ShelterA_1_60': 480.0, 'init_ShelterA_1_65': 480.0, 'init_ShelterA_1_73': 490.0, 'init_ShelterA_1_74': 500.0, 'init_ShelterA_1_75': 500.0, 'init_ShelterA_1_76': 500.0, 'init_ShelterA_1_68': 510.0, 'init_ShelterA_1_78': 510.0, 'init_ShelterA_2_81': 510.0, 'init_ShelterA_2_82': 510.0, 'init_ShelterA_2_84': 510.0, 'init_ShelterA_1_77': 520.0, 'init_ShelterA_1_79': 520.0, 'init_ShelterA_1_83': 520.0, 'init_ShelterA_1_85': 520.0, 'init_ShelterA_1_86': 520.0, 'init_ShelterA_1_87': 520.0, 'init_ShelterA_1_88': 520.0, 'init_ShelterA_1_89': 520.0, 'init_ShelterA_1_90': 560.0, 'init_ShelterA_2_93': 560.0, 'init_ShelterA_1_92': 580.0, 'init_ShelterA_1_94': 580.0, 'init_ShelterA_1_95': 580.0, 'init_ShelterA_1_91': 590.0, 'init_ShelterA_1_96': 590.0, 'init_ShelterA_1_97': 590.0, 'init_ShelterA_1_100': 600.0, 'init_ShelterA_1_101': 600.0, 'init_ShelterA_1_99': 600.0, 'init_ShelterA_2_103': 600.0, 'init_ShelterA_1_102': 610.0, 'init_ShelterA_1_107': 610.0, 'init_ShelterA_2_106': 610.0, 'init_ShelterA_1_105': 620.0, 'init_ShelterA_1_104': 650.0, 'init_ShelterA_1_109': 670.0, 'init_ShelterA_1_114': 680.0, 'init_ShelterA_1_115': 680.0, 'init_ShelterA_1_118': 680.0, 'init_ShelterA_1_110': 690.0, 'init_ShelterA_1_111': 690.0, 'init_ShelterA_1_112': 690.0, 'init_ShelterA_1_113': 690.0, 'init_ShelterA_1_117': 690.0, 'init_ShelterA_1_119': 690.0, 'init_ShelterA_1_121': 690.0, 'init_ShelterA_1_122': 690.0, 'init_ShelterA_2_124': 690.0, 'init_ShelterA_1_108': 700.0, 'init_ShelterA_1_125': 700.0, 'init_ShelterA_1_126': 700.0, 'init_ShelterA_1_169': 720.0, 'init_ShelterA_1_170': 720.0, 'init_ShelterA_1_172': 720.0, 'init_ShelterA_1_173': 720.0, 'init_ShelterA_1_175': 720.0, 'init_ShelterA_1_176': 720.0, 'init_ShelterA_1_177': 720.0, 'init_ShelterA_1_178': 720.0, 'init_ShelterA_1_179': 720.0, 'init_ShelterA_1_180': 720.0, 'init_ShelterA_1_181': 720.0, 'init_ShelterA_1_183': 720.0, 'init_ShelterA_1_184': 720.0, 'init_ShelterA_1_185': 720.0, 'init_ShelterA_1_186': 720.0, 'init_ShelterA_1_187': 720.0, 'init_ShelterA_1_189': 720.0, 'init_ShelterA_1_190': 720.0, 'init_ShelterA_1_191': 720.0, 'init_ShelterA_2_171': 720.0, 'init_ShelterA_2_174': 720.0, 'init_ShelterA_2_182': 720.0, 'init_ShelterA_2_130': 750.0, 'init_ShelterA_1_129': 760.0, 'init_ShelterA_1_131': 760.0, 'init_ShelterA_1_192': 760.0, 'init_ShelterA_2_133': 760.0, 'init_ShelterA_1_123': 770.0, 'init_ShelterA_1_128': 770.0, 'init_ShelterA_1_132': 770.0, 'init_ShelterA_1_134': 770.0, 'init_ShelterA_1_135': 770.0, 'init_ShelterA_1_136': 770.0, 'init_ShelterA_1_137': 770.0, 'init_ShelterA_2_139': 770.0, 'init_ShelterA_1_142': 780.0, 'init_ShelterA_1_144': 780.0, 'init_ShelterA_1_193': 780.0, 'init_ShelterA_1_196': 780.0, 'init_ShelterA_1_138': 790.0, 'init_ShelterA_1_140': 790.0, 'init_ShelterA_1_199': 790.0, 'init_ShelterA_1_201': 790.0, 'init_ShelterA_1_194': 800.0, 'init_ShelterA_1_195': 800.0, 'init_ShelterA_1_197': 800.0, 'init_ShelterA_1_198': 800.0, 'init_ShelterA_1_200': 800.0, 'init_ShelterA_1_202': 800.0, 'init_ShelterA_1_145': 840.0, 'init_ShelterA_1_147': 840.0, 'init_ShelterA_1_149': 840.0, 'init_ShelterA_1_151': 840.0, 'init_ShelterA_2_150': 840.0, 'init_ShelterA_1_141': 850.0, 'init_ShelterA_1_148': 850.0, 'init_ShelterA_1_152': 850.0, 'init_ShelterA_1_155': 850.0, 'init_ShelterA_2_207': 850.0, 'init_ShelterA_1_146': 860.0, 'init_ShelterA_1_154': 860.0, 'init_ShelterA_1_158': 860.0, 'init_ShelterA_1_160': 860.0, 'init_ShelterA_1_161': 870.0, 'init_ShelterA_1_159': 880.0, 'init_ShelterA_1_164': 930.0, 'init_ShelterA_1_165': 930.0, 'init_ShelterA_1_166': 930.0, 'init_ShelterA_1_168': 930.0, 'init_ShelterA_1_162': 940.0, 'init_ShelterA_1_167': 940.0, 'init_ShelterA_2_226': 950.0, 'init_ShelterA_1_224': 970.0, 'init_ShelterA_1_235': 970.0, 'init_ShelterA_1_237': 970.0, 'init_ShelterA_1_227': 980.0, 'init_ShelterA_1_228': 980.0, 'init_ShelterA_1_230': 980.0, 'init_ShelterA_1_233': 980.0, 'init_ShelterA_1_239': 980.0, 'init_ShelterA_1_240': 980.0, 'init_ShelterA_1_241': 980.0, 'init_ShelterA_1_243': 990.0, 'init_ShelterA_1_244': 990.0, 'init_ShelterA_1_245': 990.0, 'init_ShelterA_1_203': 1040.0, 'init_ShelterA_1_204': 1040.0, 'init_ShelterA_1_205': 1040.0, 'init_ShelterA_2_259': 1050.0, 'init_ShelterA_1_255': 1070.0, 'init_ShelterA_1_256': 1070.0, 'init_ShelterA_1_257': 1070.0, 'init_ShelterA_1_258': 1070.0, 'init_ShelterA_1_260': 1070.0, 'init_ShelterA_1_261': 1070.0, 'init_ShelterA_1_262': 1070.0, 'init_ShelterA_1_263': 1070.0, 'init_ShelterA_1_264': 1070.0, 'init_ShelterA_1_217': 1100.0, 'init_ShelterA_1_209': 1110.0, 'init_ShelterA_1_210': 1110.0, 'init_ShelterA_2_270': 1120.0, 'init_ShelterA_2_277': 1130.0, 'init_ShelterA_2_269': 1140.0, 'init_ShelterA_2_278': 1140.0, 'init_ShelterA_1_218': 1150.0, 'init_ShelterA_1_279': 1150.0, 'init_ShelterA_1_280': 1150.0, 'init_ShelterA_1_283': 1150.0, 'init_ShelterA_1_284': 1150.0, 'init_ShelterA_1_274': 1160.0, 'init_ShelterA_1_219': 1170.0, 'init_ShelterA_1_220': 1170.0, 'init_ShelterA_1_222': 1170.0, 'init_ShelterA_1_211': 1180.0, 'init_ShelterA_1_215': 1180.0, 'init_ShelterA_1_216': 1180.0, 'init_ShelterA_1_223': 1180.0, 'init_ShelterA_1_232': 1180.0, 'init_ShelterA_1_234': 1190.0, 'init_ShelterA_1_246': 1190.0, 'init_ShelterA_1_247': 1190.0, 'init_ShelterA_1_248': 1190.0, 'init_ShelterA_1_249': 1190.0, 'init_ShelterA_1_213': 1200.0, 'init_ShelterA_1_214': 1200.0, 'init_ShelterA_2_294': 1200.0, 'init_ShelterA_1_229': 1210.0, 'init_ShelterA_1_295': 1230.0, 'init_ShelterA_1_296': 1230.0, 'init_ShelterA_1_297': 1230.0, 'init_ShelterA_1_299': 1230.0, 'init_ShelterA_1_301': 1230.0, 'init_ShelterA_1_302': 1230.0, 'init_ShelterA_1_303': 1230.0, 'init_ShelterA_1_298': 1240.0, 'init_ShelterA_1_300': 1240.0, 'init_ShelterA_1_304': 1240.0, 'init_ShelterA_1_306': 1240.0, 'init_ShelterA_2_305': 1240.0, 'init_ShelterA_2_308': 1250.0, 'init_ShelterA_1_251': 1260.0, 'init_ShelterA_1_253': 1260.0, 'init_ShelterA_1_267': 1260.0, 'init_ShelterA_2_317': 1290.0, 'init_ShelterA_2_319': 1300.0, 'init_ShelterA_1_315': 1310.0, 'init_ShelterA_1_316': 1310.0, 'init_ShelterA_1_318': 1310.0, 'init_ShelterA_1_268': 1340.0, 'init_ShelterA_1_321': 1350.0, 'init_ShelterA_1_322': 1350.0, 'init_ShelterA_1_275': 1360.0, 'init_ShelterA_1_288': 1400.0, 'init_ShelterA_1_332': 1410.0, 'init_ShelterA_1_337': 1410.0, 'init_ShelterA_1_341': 1410.0, 'init_ShelterA_1_342': 1410.0, 'init_ShelterA_1_343': 1410.0, 'init_ShelterA_1_344': 1410.0, 'init_ShelterA_1_293': 1430.0, 'init_ShelterA_1_276': 1450.0, 'init_ShelterA_1_273': 1460.0, 'init_ShelterA_1_287': 1470.0, 'init_ShelterA_1_347': 1470.0, 'init_ShelterA_1_348': 1470.0, 'init_ShelterA_1_349': 1470.0, 'init_ShelterA_1_281': 1480.0, 'init_ShelterA_1_286': 1480.0, 'init_ShelterA_1_289': 1480.0, 'init_ShelterA_1_290': 1480.0, 'init_ShelterA_1_350': 1480.0, 'init_ShelterA_1_351': 1480.0, 'init_ShelterA_1_352': 1480.0, 'init_ShelterA_2_353': 1480.0, 'init_ShelterA_1_282': 1490.0, 'init_ShelterA_1_354': 1490.0, 'init_ShelterA_1_355': 1490.0, 'init_ShelterA_1_356': 1490.0, 'init_ShelterA_1_357': 1490.0, 'init_ShelterA_1_272': 1500.0, 'init_ShelterA_2_359': 1500.0, 'init_ShelterA_2_360': 1500.0, 'init_ShelterA_2_361': 1500.0, 'init_ShelterA_1_312': 1520.0, 'init_ShelterA_1_314': 1520.0, 'init_ShelterA_1_320': 1530.0, 'init_ShelterA_1_323': 1530.0, 'init_ShelterA_1_324': 1530.0, 'init_ShelterA_1_327': 1560.0, 'init_ShelterA_1_329': 1560.0, 'init_ShelterA_1_331': 1560.0, 'init_ShelterA_1_333': 1560.0, 'init_ShelterA_1_334': 1560.0, 'init_ShelterA_2_330': 1560.0, 'init_ShelterA_2_374': 1560.0, 'init_ShelterA_1_326': 1570.0, 'init_ShelterA_1_338': 1570.0, 'init_ShelterA_1_340': 1570.0, 'init_ShelterA_1_372': 1570.0, 'init_ShelterA_1_378': 1570.0, 'init_ShelterA_1_335': 1580.0, 'init_ShelterA_1_370': 1580.0, 'init_ShelterA_1_376': 1580.0, 'init_ShelterA_1_381': 1580.0, 'init_ShelterA_1_382': 1580.0, 'init_ShelterA_1_383': 1580.0, 'init_ShelterA_1_384': 1580.0, 'init_ShelterA_2_386': 1590.0, 'init_ShelterA_1_328': 1600.0, 'init_ShelterA_1_336': 1610.0, 'init_ShelterA_1_339': 1620.0, 'init_ShelterA_2_399': 1640.0, 'init_ShelterA_1_325': 1650.0, 'init_ShelterA_1_345': 1650.0, 'init_ShelterA_1_396': 1650.0, 'init_ShelterA_1_397': 1650.0, 'init_ShelterA_1_398': 1650.0, 'init_ShelterA_1_365': 1700.0, 'init_ShelterA_2_364': 1700.0, 'init_ShelterA_2_368': 1730.0, 'init_ShelterA_1_388': 1740.0, 'init_ShelterA_1_367': 1790.0, 'init_ShelterA_1_369': 1790.0, 'init_ShelterA_1_371': 1790.0, 'init_ShelterA_1_380': 1790.0, 'init_ShelterA_1_387': 1790.0, 'init_ShelterA_1_375': 1800.0, 'init_ShelterA_1_362': 1820.0, 'init_ShelterA_1_363': 1820.0, 'init_ShelterA_1_366': 1820.0, 'init_ShelterA_1_395': 1820.0, 'init_ShelterA_1_358': 1830.0, 'init_ShelterA_1_393': 1830.0, 'init_ShelterA_1_346': 1840.0, 'init_ShelterA_1_392': 1860.0, 'init_ShelterA_1_390': 1870.0, 'init_ShelterA_1_391': 1870.0, 'init_ShelterA_1_379': 1880.0, 'init_ShelterA_1_389': 1880.0, 'init_ShelterA_1_373': 1890.0, 'init_ShelterA_1_377': 1900.0}
pedestrian_count:0
route_changed_vehicle_count:320
route_change_event_count:320
rate_vehicle_abandonment:0.00%
wrong_way_driving_count:0
vehicle_abandonment_count:0
normalcy_bias_route_change_count:203
majority_bias_route_change_count:117
lane_changed_vehicle_count:0
info_obtained_lanechange_count:0
elapsed_time_lanechange_count:0
majority_bias_lanechange_count:0

=== Job Result ===
end=2026-07-13T02:12:58+0900
elapsed_seconds=384
exit_code=0
status=SUCCESS
