=== Job Info ===
job_name=va_s8_e1.0_v1.0_r27
host=schubert
pid=125724
scenario=8
early_rate=1.0
v2v_rate=1.0
run_id=27
config=/home/katagi/vehicle-assistant-system/scenarios/JIP/configs/config_scenario_8.toml
output_dir=/home/katagi/vehicle-assistant-system/schubert_logs/va_s8_e1.0_v1.0_r27
start=2026-07-13T02:21:47+0900
python_version=Python 3.12.3
sumo_version=Eclipse SUMO sumo Version v1_23_1+0435-630512a

=== Command ===
cd /home/katagi/vehicle-assistant-system/schubert_logs/va_s8_e1.0_v1.0_r27
PYTHONPATH=/home/katagi/vehicle-assistant-system:/home/katagi/tmp/sumo/tools:/home/katagi/local/sumo/tools:/home/katagi/tmp/sumo/tools:/home/katagi/local/sumo/tools:/home/katagi/tmp/sumo/tools:/home/katagi/local/sumo/tools: python3 -W ignore::UserWarning -m scenarios.JIP.1-1-4.simulation.runner_simulator --nogui /home/katagi/vehicle-assistant-system/scenarios/JIP/configs/config_scenario_8.toml 1.0 1.0
simulation_pid=125744
Step #0.00 (0ms ?*RT. ?UPS, TraCI: 337ms, vehicles TOT 1 ACT 1 BUF 0)                     Step #100.00 (0ms ?*RT. ?UPS, TraCI: 18ms, vehicles TOT 26 ACT 26 BUF 0)                  Step #200.00 (0ms ?*RT. ?UPS, TraCI: 36ms, vehicles TOT 51 ACT 51 BUF 0)                  Step #300.00 (0ms ?*RT. ?UPS, TraCI: 58ms, vehicles TOT 77 ACT 77 BUF 0)                  Step #400.00 (0ms ?*RT. ?UPS, TraCI: 481ms, vehicles TOT 104 ACT 104 BUF 0)               Step #500.00 (1ms ~= 1000.00*RT, ~131000.00UPS, TraCI: 1520ms, vehicles TOT 131 ACT 131 BUStep #600.00 (1ms ~= 1000.00*RT, ~158000.00UPS, TraCI: 1527ms, vehicles TOT 158 ACT 158 BUStep #700.00 (1ms ~= 1000.00*RT, ~174000.00UPS, TraCI: 1812ms, vehicles TOT 193 ACT 174 BUStep #800.00 (1ms ~= 1000.00*RT, ~190000.00UPS, TraCI: 1003ms, vehicles TOT 223 ACT 190 BUStep #900.00 (1ms ~= 1000.00*RT, ~206000.00UPS, TraCI: 1614ms, vehicles TOT 256 ACT 206 BUStep #1000.00 (1ms ~= 1000.00*RT, ~239000.00UPS, TraCI: 1371ms, vehicles TOT 294 ACT 239 BStep #1100.00 (1ms ~= 1000.00*RT, ~250000.00UPS, TraCI: 1768ms, vehicles TOT 322 ACT 250 BStep #1200.00 (1ms ~= 1000.00*RT, ~275000.00UPS, TraCI: 1272ms, vehicles TOT 349 ACT 275 BStep #1300.00 (1ms ~= 1000.00*RT, ~301000.00UPS, TraCI: 2147ms, vehicles TOT 379 ACT 301 BStep #1400.00 (1ms ~= 1000.00*RT, ~319000.00UPS, TraCI: 1563ms, vehicles TOT 417 ACT 319 BStep #1500.00 (0ms ?*RT. ?UPS, TraCI: 2008ms, vehicles TOT 452 ACT 336 BUF 64)            Step #1600.00 (1ms ~= 1000.00*RT, ~358000.00UPS, TraCI: 2032ms, vehicles TOT 479 ACT 358 BStep #1700.00 (0ms ?*RT. ?UPS, TraCI: 1849ms, vehicles TOT 513 ACT 381 BUF 19)            Step #1800.00 (1ms ~= 1000.00*RT, ~400000.00UPS, TraCI: 1684ms, vehicles TOT 532 ACT 400 BStep #1900.00 (0ms ?*RT. ?UPS, TraCI: 1457ms, vehicles TOT 532 ACT 400 BUF 0)             Step #2000.00 (0ms ?*RT. ?UPS, TraCI: 1237ms, vehicles TOT 532 ACT 400 BUF 0)             Step #2100.00 (1ms ~= 1000.00*RT, ~400000.00UPS, TraCI: 479ms, vehicles TOT 532 ACT 400 BUStep #2200.00 (0ms ?*RT. ?UPS, TraCI: 92ms, vehicles TOT 532 ACT 400 BUF 0)               Step #2300.00 (0ms ?*RT. ?UPS, TraCI: 93ms, vehicles TOT 532 ACT 400 BUF 0)               Step #2400.00 (0ms ?*RT. ?UPS, TraCI: 82ms, vehicles TOT 532 ACT 400 BUF 0)               Step #2500.00 (0ms ?*RT. ?UPS, TraCI: 83ms, vehicles TOT 532 ACT 400 BUF 0)               Step #2600.00 (0ms ?*RT. ?UPS, TraCI: 79ms, vehicles TOT 532 ACT 400 BUF 0)               Step #2700.00 (0ms ?*RT. ?UPS, TraCI: 78ms, vehicles TOT 532 ACT 400 BUF 0)               Step #2800.00 (0ms ?*RT. ?UPS, TraCI: 79ms, vehicles TOT 532 ACT 400 BUF 0)               Step #2900.00 (0ms ?*RT. ?UPS, TraCI: 79ms, vehicles TOT 532 ACT 400 BUF 0)               Step #3000.00 (1ms ~= 1000.00*RT, ~400000.00UPS, TraCI: 78ms, vehicles TOT 532 ACT 400 BUF
 Retrying in 1 seconds
出現数: {'A1': 362, 'A2': 38}
割合:
  Total: 400
  A1: 362 (90.50%)
  A2: 38 (9.50%)
  B1: 0 (0.00%)
  B2: 0 (0.00%)
mean elapsed_time: 542.2575
OK all vehs arrived 
平均渋滞継続時間: 470.85秒
OK all vehicle abandonment were detected
268
132
===== Simlation Result Summary =====
avg_congestion_duration: 470.85 
arrival_time_by_vehID_dict:{'init_ShelterA_1_0': 207.0, 'init_ShelterA_1_1': 246.0, 'init_ShelterA_1_2': 284.0, 'init_ShelterA_1_3': 292.0, 'init_ShelterA_1_4': 297.0, 'init_ShelterA_1_5': 303.0, 'init_ShelterA_1_6': 308.0, 'init_ShelterA_1_10': 313.0, 'init_ShelterA_1_11': 319.0, 'init_ShelterA_1_12': 325.0, 'init_ShelterA_1_13': 332.0, 'init_ShelterA_1_14': 339.0, 'init_ShelterA_1_15': 347.0, 'init_ShelterA_1_16': 354.0, 'init_ShelterA_1_17': 358.0, 'init_ShelterA_1_18': 363.0, 'init_ShelterA_1_19': 378.0, 'init_ShelterA_2_7': 378.0, 'init_ShelterA_1_21': 383.0, 'init_ShelterA_1_22': 391.0, 'init_ShelterA_1_23': 396.0, 'init_ShelterA_1_24': 402.0, 'init_ShelterA_2_8': 407.0, 'init_ShelterA_1_25': 408.0, 'init_ShelterA_1_26': 414.0, 'init_ShelterA_2_9': 414.0, 'init_ShelterA_1_28': 421.0, 'init_ShelterA_1_29': 429.0, 'init_ShelterA_1_30': 438.0, 'init_ShelterA_1_31': 446.0, 'init_ShelterA_1_32': 451.0, 'init_ShelterA_1_34': 457.0, 'init_ShelterA_1_35': 462.0, 'init_ShelterA_1_36': 468.0, 'init_ShelterA_1_37': 474.0, 'init_ShelterA_2_20': 479.0, 'init_ShelterA_1_38': 481.0, 'init_ShelterA_2_27': 484.0, 'init_ShelterA_1_39': 489.0, 'init_ShelterA_1_40': 498.0, 'init_ShelterA_1_41': 507.0, 'init_ShelterA_1_42': 516.0, 'init_ShelterA_2_33': 524.0, 'init_ShelterA_1_43': 525.0, 'init_ShelterA_1_44': 535.0, 'init_ShelterA_1_45': 545.0, 'init_ShelterA_1_46': 554.0, 'init_ShelterA_1_47': 564.0, 'init_ShelterA_1_48': 574.0, 'init_ShelterA_1_49': 583.0, 'init_ShelterA_1_50': 593.0, 'init_ShelterA_1_51': 603.0, 'init_ShelterA_1_52': 612.0, 'init_ShelterA_1_53': 622.0, 'init_ShelterA_1_55': 632.0, 'init_ShelterA_1_64': 639.0, 'init_ShelterA_1_54': 641.0, 'init_ShelterA_1_66': 647.0, 'init_ShelterA_2_67': 649.0, 'init_ShelterA_1_70': 654.0, 'init_ShelterA_1_72': 659.0, 'init_ShelterA_1_56': 672.0, 'init_ShelterA_1_57': 674.0, 'init_ShelterA_2_85': 674.0, 'init_ShelterA_1_58': 677.0, 'init_ShelterA_1_59': 680.0, 'init_ShelterA_1_60': 683.0, 'init_ShelterA_1_61': 686.0, 'init_ShelterA_1_86': 688.0, 'init_ShelterA_1_62': 689.0, 'init_ShelterA_1_63': 692.0, 'init_ShelterA_1_65': 695.0, 'init_ShelterA_1_68': 698.0, 'init_ShelterA_1_69': 701.0, 'init_ShelterA_1_71': 726.0, 'init_ShelterA_1_73': 735.0, 'init_ShelterA_1_74': 737.0, 'init_ShelterA_1_75': 740.0, 'init_ShelterA_1_94': 751.0, 'init_ShelterA_1_76': 754.0, 'init_ShelterA_2_96': 754.0, 'init_ShelterA_1_77': 756.0, 'init_ShelterA_1_78': 759.0, 'init_ShelterA_1_79': 762.0, 'init_ShelterA_1_80': 765.0, 'init_ShelterA_1_81': 771.0, 'init_ShelterA_1_82': 773.0, 'init_ShelterA_1_83': 775.0, 'init_ShelterA_1_84': 778.0, 'init_ShelterA_1_87': 838.0, 'init_ShelterA_1_88': 840.0, 'init_ShelterA_1_89': 842.0, 'init_ShelterA_1_90': 845.0, 'init_ShelterA_1_91': 848.0, 'init_ShelterA_1_92': 851.0, 'init_ShelterA_1_93': 854.0, 'init_ShelterA_1_95': 862.0, 'init_ShelterA_1_97': 878.0, 'init_ShelterA_1_98': 880.0, 'init_ShelterA_1_99': 882.0, 'init_ShelterA_1_100': 884.0, 'init_ShelterA_1_101': 887.0, 'init_ShelterA_1_102': 890.0, 'init_ShelterA_1_121': 913.0, 'init_ShelterA_2_122': 915.0, 'init_ShelterA_1_103': 938.0, 'init_ShelterA_1_104': 940.0, 'init_ShelterA_1_131': 940.0, 'init_ShelterA_1_105': 942.0, 'init_ShelterA_1_106': 945.0, 'init_ShelterA_1_107': 948.0, 'init_ShelterA_1_134': 950.0, 'init_ShelterA_1_108': 951.0, 'init_ShelterA_2_135': 952.0, 'init_ShelterA_1_109': 954.0, 'init_ShelterA_1_110': 957.0, 'init_ShelterA_1_136': 957.0, 'init_ShelterA_1_111': 960.0, 'init_ShelterA_1_112': 963.0, 'init_ShelterA_1_113': 966.0, 'init_ShelterA_1_114': 969.0, 'init_ShelterA_1_115': 972.0, 'init_ShelterA_1_116': 975.0, 'init_ShelterA_1_117': 978.0, 'init_ShelterA_1_118': 981.0, 'init_ShelterA_1_119': 984.0, 'init_ShelterA_1_120': 1003.0, 'init_ShelterA_1_123': 1004.0, 'init_ShelterA_1_137': 1008.0, 'init_ShelterA_1_124': 1010.0, 'init_ShelterA_2_140': 1010.0, 'init_ShelterA_2_141': 1012.0, 'init_ShelterA_1_142': 1021.0, 'init_ShelterA_1_125': 1022.0, 'init_ShelterA_1_126': 1024.0, 'init_ShelterA_1_127': 1026.0, 'init_ShelterA_1_145': 1027.0, 'init_ShelterA_1_128': 1029.0, 'init_ShelterA_1_146': 1032.0, 'init_ShelterA_1_129': 1036.0, 'init_ShelterA_1_130': 1038.0, 'init_ShelterA_1_147': 1038.0, 'init_ShelterA_1_132': 1040.0, 'init_ShelterA_1_133': 1042.0, 'init_ShelterA_1_164': 1044.0, 'init_ShelterA_1_165': 1049.0, 'init_ShelterA_1_166': 1053.0, 'init_ShelterA_1_138': 1080.0, 'init_ShelterA_1_139': 1098.0, 'init_ShelterA_1_143': 1100.0, 'init_ShelterA_1_144': 1102.0, 'newveh_ShelterA_1_163_16': 1118.0, 'newveh_ShelterA_1_158_15': 1128.0, 'newveh_ShelterA_1_155_14': 1132.0, 'init_ShelterA_1_183': 1137.0, 'newveh_ShelterA_2_148_0': 1159.0, 'newveh_ShelterA_2_160_10': 1165.0, 'newveh_ShelterA_2_159_9': 1169.0, 'newveh_ShelterA_2_157_8': 1179.0, 'init_ShelterA_1_184': 1182.0, 'init_ShelterA_1_185': 1188.0, 'init_ShelterA_1_186': 1195.0, 'newveh_ShelterA_1_175_20': 1201.0, 'init_ShelterA_2_187': 1203.0, 'init_ShelterA_1_188': 1208.0, 'newveh_ShelterA_2_156_7': 1211.0, 'newveh_ShelterA_1_180_23': 1213.0, 'newveh_ShelterA_2_154_6': 1217.0, 'init_ShelterA_1_191': 1218.0, 'newveh_ShelterA_2_153_5': 1221.0, 'newveh_ShelterA_2_152_4': 1230.0, 'newveh_ShelterA_2_151_3': 1237.0, 'newveh_ShelterA_2_150_2': 1243.0, 'newveh_ShelterA_2_149_1': 1248.0, 'newveh_ShelterA_2_161_11': 1254.0, 'newveh_ShelterA_2_162_12': 1261.0, 'newveh_ShelterA_2_168_13': 1269.0, 'newveh_ShelterA_2_167_17': 1273.0, 'newveh_ShelterA_2_169_18': 1278.0, 'newveh_ShelterA_2_171_19': 1295.0, 'init_ShelterA_1_198': 1298.0, 'init_ShelterA_2_201': 1301.0, 'init_ShelterA_1_202': 1312.0, 'init_ShelterA_1_203': 1317.0, 'newveh_ShelterA_2_181_22': 1319.0, 'newveh_ShelterA_1_197_33': 1321.0, 'newveh_ShelterA_2_179_21': 1340.0, 'init_ShelterA_1_189': 1343.0, 'init_ShelterA_1_190': 1345.0, 'init_ShelterA_1_192': 1347.0, 'init_ShelterA_1_193': 1350.0, 'newveh_ShelterA_2_170_24': 1355.0, 'newveh_ShelterA_2_172_25': 1360.0, 'newveh_ShelterA_2_173_26': 1368.0, 'init_ShelterA_1_223': 1370.0, 'newveh_ShelterA_2_174_27': 1372.0, 'init_ShelterA_1_224': 1378.0, 'newveh_ShelterA_2_182_31': 1381.0, 'init_ShelterA_1_226': 1382.0, 'init_ShelterA_1_228': 1387.0, 'init_ShelterA_1_229': 1394.0, 'newveh_ShelterA_2_176_28': 1397.0, 'init_ShelterA_1_232': 1399.0, 'newveh_ShelterA_2_177_29': 1401.0, 'newveh_ShelterA_1_209_37': 1404.0, 'newveh_ShelterA_2_178_30': 1416.0, 'init_ShelterA_1_195': 1419.0, 'init_ShelterA_1_196': 1421.0, 'init_ShelterA_1_199': 1423.0, 'init_ShelterA_1_200': 1425.0, 'newveh_ShelterA_2_194_32': 1431.0, 'init_ShelterA_1_220': 1433.0, 'newveh_ShelterA_1_219_39': 1454.0, 'init_ShelterA_1_236': 1464.0, 'init_ShelterA_2_237': 1466.0, 'init_ShelterA_1_221': 1475.0, 'init_ShelterA_1_238': 1475.0, 'init_ShelterA_1_222': 1477.0, 'init_ShelterA_1_240': 1481.0, 'init_ShelterA_1_241': 1486.0, 'init_ShelterA_1_225': 1488.0, 'init_ShelterA_1_227': 1490.0, 'init_ShelterA_1_243': 1490.0, 'newveh_ShelterA_2_204_34': 1510.0, 'init_ShelterA_1_230': 1513.0, 'init_ShelterA_1_231': 1515.0, 'newveh_ShelterA_2_211_35': 1522.0, 'newveh_ShelterA_2_213_36': 1526.0, 'init_ShelterA_1_250': 1549.0, 'init_ShelterA_2_264': 1551.0, 'newveh_ShelterA_2_265_76': 1555.0, 'init_ShelterA_1_268': 1563.0, 'init_ShelterA_1_269': 1568.0, 'newveh_ShelterA_2_215_38': 1571.0, 'newveh_ShelterA_2_205_40': 1578.0, 'newveh_ShelterA_2_218_49': 1582.0, 'newveh_ShelterA_2_217_48': 1591.0, 'newveh_ShelterA_2_216_47': 1599.0, 'newveh_ShelterA_2_214_46': 1604.0, 'newveh_ShelterA_2_212_45': 1612.0, 'newveh_ShelterA_2_210_44': 1617.0, 'newveh_ShelterA_2_208_43': 1622.0, 'newveh_ShelterA_2_207_42': 1628.0, 'newveh_ShelterA_1_244_55': 1631.0, 'newveh_ShelterA_2_263_75': 1633.0, 'newveh_ShelterA_2_267_77': 1640.0, 'newveh_ShelterA_2_271_86': 1645.0, 'newveh_ShelterA_2_206_41': 1650.0, 'newveh_ShelterA_2_278_94': 1657.0, 'newveh_ShelterA_1_246_61': 1659.0, 'newveh_ShelterA_2_276_93': 1662.0, 'newveh_ShelterA_2_233_50': 1668.0, 'newveh_ShelterA_1_260_68': 1673.0, 'newveh_ShelterA_2_235_52': 1678.0, 'newveh_ShelterA_2_234_51': 1690.0, 'init_ShelterA_1_262': 1692.0, 'init_ShelterA_1_266': 1694.0, 'init_ShelterA_1_270': 1696.0, 'init_ShelterA_1_272': 1698.0, 'init_ShelterA_1_273': 1700.0, 'newveh_ShelterA_2_239_53': 1711.0, 'newveh_ShelterA_2_242_54': 1720.0, 'init_ShelterA_1_274': 1722.0, 'init_ShelterA_1_275': 1724.0, 'init_ShelterA_1_291': 1732.0, 'newveh_ShelterA_2_281_97': 1732.0, 'init_ShelterA_2_292': 1734.0, 'newveh_ShelterA_2_279_96': 1739.0, 'init_ShelterA_1_295': 1749.0, 'newveh_ShelterA_2_277_95': 1753.0, 'init_ShelterA_1_299': 1754.0, 'init_ShelterA_1_280': 1756.0, 'init_ShelterA_1_282': 1758.0, 'init_ShelterA_1_283': 1760.0, 'init_ShelterA_1_284': 1762.0, 'init_ShelterA_1_301': 1762.0, 'init_ShelterA_1_285': 1764.0, 'init_ShelterA_1_288': 1766.0, 'init_ShelterA_1_302': 1769.0, 'init_ShelterA_1_303': 1773.0, 'newveh_ShelterA_2_253_57': 1775.0, 'init_ShelterA_1_305': 1778.0, 'newveh_ShelterA_2_252_56': 1781.0, 'newveh_ShelterA_2_255_59': 1785.0, 'newveh_ShelterA_2_254_58': 1793.0, 'newveh_ShelterA_2_256_60': 1800.0, 'init_ShelterA_1_290': 1802.0, 'newveh_ShelterA_2_259_67': 1811.0, 'newveh_ShelterA_2_258_66': 1816.0, 'init_ShelterA_1_315': 1820.0, 'newveh_ShelterA_2_321_116': 1820.0, 'init_ShelterA_1_316': 1827.0, 'init_ShelterA_1_317': 1833.0, 'init_ShelterA_1_318': 1839.0, 'init_ShelterA_1_319': 1846.0, 'init_ShelterA_1_320': 1853.0, 'newveh_ShelterA_2_257_65': 1854.0, 'init_ShelterA_1_322': 1861.0, 'newveh_ShelterA_2_247_62': 1862.0, 'newveh_ShelterA_2_251_64': 1867.0, 'newveh_ShelterA_1_287_73': 1870.0, 'newveh_ShelterA_2_248_63': 1876.0, 'init_ShelterA_1_323': 1879.0, 'newveh_ShelterA_2_261_71': 1886.0, 'init_ShelterA_1_326': 1887.0, 'init_ShelterA_1_293': 1888.0, 'init_ShelterA_1_294': 1890.0, 'init_ShelterA_1_330': 1893.0, 'init_ShelterA_1_335': 1898.0, 'newveh_ShelterA_2_249_70': 1898.0, 'newveh_ShelterA_2_245_69': 1902.0, 'init_ShelterA_1_336': 1903.0, 'init_ShelterA_1_342': 1907.0, 'newveh_ShelterA_2_332_120': 1911.0, 'newveh_ShelterA_2_325_119': 1917.0, 'newveh_ShelterA_2_334_123': 1922.0, 'newveh_ShelterA_2_333_122': 1930.0, 'init_ShelterA_1_372': 1933.0, 'init_ShelterA_1_373': 1937.0, 'newveh_ShelterA_2_329_121': 1940.0, 'newveh_ShelterA_2_286_72': 1945.0, 'init_ShelterA_1_324': 1948.0, 'init_ShelterA_1_327': 1950.0, 'init_ShelterA_1_328': 1952.0, 'init_ShelterA_1_331': 1954.0, 'newveh_ShelterA_2_337_124': 1966.0, 'newveh_ShelterA_2_370_130': 1975.0, 'newveh_ShelterA_2_368_129': 1983.0, 'newveh_ShelterA_2_364_128': 1988.0, 'init_ShelterA_1_338': 1990.0, 'init_ShelterA_1_339': 1993.0, 'init_ShelterA_1_340': 1995.0, 'newveh_ShelterA_1_309_85': 2010.0, 'init_ShelterA_1_376': 2014.0, 'newveh_ShelterA_2_289_74': 2020.0, 'init_ShelterA_1_345': 2022.0, 'init_ShelterA_1_349': 2024.0, 'init_ShelterA_1_351': 2026.0, 'init_ShelterA_1_352': 2029.0, 'init_ShelterA_1_354': 2031.0, 'init_ShelterA_1_365': 2033.0, 'init_ShelterA_1_377': 2033.0, 'init_ShelterA_1_367': 2035.0, 'init_ShelterA_1_378': 2037.0, 'init_ShelterA_1_369': 2038.0, 'newveh_ShelterA_2_297_78': 2048.0, 'newveh_ShelterA_2_310_84': 2054.0, 'newveh_ShelterA_2_371_131': 2059.0, 'init_ShelterA_1_380': 2089.0, 'init_ShelterA_2_383': 2091.0, 'init_ShelterA_1_384': 2096.0, 'newveh_ShelterA_2_308_83': 2102.0, 'init_ShelterA_1_386': 2106.0, 'newveh_ShelterA_2_307_82': 2108.0, 'newveh_ShelterA_2_306_81': 2112.0, 'init_ShelterA_1_390': 2113.0, 'init_ShelterA_1_392': 2118.0, 'init_ShelterA_1_394': 2125.0, 'init_ShelterA_1_396': 2130.0, 'newveh_ShelterA_2_304_80': 2130.0, 'init_ShelterA_1_397': 2134.0, 'newveh_ShelterA_2_296_79': 2138.0, 'newveh_ShelterA_2_312_90': 2143.0, 'newveh_ShelterA_2_311_89': 2148.0, 'newveh_ShelterA_2_298_87': 2154.0, 'newveh_ShelterA_2_300_88': 2161.0, 'newveh_ShelterA_2_314_92': 2169.0, 'newveh_ShelterA_1_348_99': 2170.0, 'newveh_ShelterA_2_313_91': 2174.0, 'init_ShelterA_1_379': 2176.0, 'newveh_ShelterA_1_341_98': 2176.0, 'init_ShelterA_1_381': 2184.0, 'init_ShelterA_1_382': 2186.0, 'newveh_ShelterA_1_350_100': 2186.0, 'init_ShelterA_1_385': 2188.0, 'init_ShelterA_1_387': 2190.0, 'newveh_ShelterA_1_355_101': 2190.0, 'init_ShelterA_1_389': 2192.0, 'init_ShelterA_1_391': 2194.0, 'init_ShelterA_1_398': 2201.0, 'init_ShelterA_1_399': 2203.0, 'newveh_ShelterA_1_393_125': 2265.0, 'newveh_ShelterA_1_395_127': 2271.0, 'newveh_ShelterA_2_343_102': 2279.0, 'newveh_ShelterA_2_359_107': 2288.0, 'newveh_ShelterA_2_358_106': 2293.0, 'newveh_ShelterA_2_357_105': 2298.0, 'newveh_ShelterA_2_356_104': 2305.0, 'newveh_ShelterA_2_346_103': 2310.0, 'newveh_ShelterA_2_344_108': 2316.0, 'newveh_ShelterA_2_363_114': 2321.0, 'newveh_ShelterA_2_362_113': 2327.0, 'newveh_ShelterA_2_361_112': 2335.0, 'newveh_ShelterA_2_360_111': 2339.0, 'newveh_ShelterA_2_366_115': 2343.0, 'newveh_ShelterA_2_374_117': 2387.0, 'newveh_ShelterA_2_353_110': 2393.0, 'newveh_ShelterA_2_347_109': 2398.0, 'newveh_ShelterA_2_375_118': 2406.0, 'newveh_ShelterA_2_388_126': 2411.0}
vehicle_abandant_time_by_pedestrianID_dict:{}
walking_distance_by_pedestrianID_dict:{}
route_change_time_by_vehID_dict:{'init_ShelterA_1_56': 430.0, 'init_ShelterA_1_59': 430.0, 'init_ShelterA_1_62': 430.0, 'init_ShelterA_1_54': 440.0, 'init_ShelterA_1_57': 440.0, 'init_ShelterA_1_58': 440.0, 'init_ShelterA_1_60': 440.0, 'init_ShelterA_2_67': 440.0, 'init_ShelterA_1_65': 450.0, 'init_ShelterA_1_61': 460.0, 'init_ShelterA_1_63': 460.0, 'init_ShelterA_1_68': 470.0, 'init_ShelterA_1_69': 470.0, 'init_ShelterA_1_71': 490.0, 'init_ShelterA_1_73': 490.0, 'init_ShelterA_1_74': 500.0, 'init_ShelterA_1_75': 500.0, 'init_ShelterA_1_76': 500.0, 'init_ShelterA_1_77': 500.0, 'init_ShelterA_1_78': 510.0, 'init_ShelterA_1_79': 510.0, 'init_ShelterA_1_80': 510.0, 'init_ShelterA_1_81': 510.0, 'init_ShelterA_1_82': 510.0, 'init_ShelterA_1_83': 510.0, 'init_ShelterA_1_84': 520.0, 'init_ShelterA_1_87': 520.0, 'init_ShelterA_2_85': 520.0, 'init_ShelterA_1_89': 580.0, 'init_ShelterA_2_96': 590.0, 'init_ShelterA_1_90': 600.0, 'init_ShelterA_1_91': 600.0, 'init_ShelterA_1_92': 600.0, 'init_ShelterA_1_93': 600.0, 'init_ShelterA_1_95': 600.0, 'init_ShelterA_1_97': 600.0, 'init_ShelterA_1_98': 600.0, 'init_ShelterA_1_99': 600.0, 'init_ShelterA_1_100': 610.0, 'init_ShelterA_1_101': 610.0, 'init_ShelterA_1_102': 610.0, 'init_ShelterA_1_103': 610.0, 'init_ShelterA_1_104': 610.0, 'init_ShelterA_1_105': 610.0, 'init_ShelterA_1_88': 610.0, 'init_ShelterA_1_148': 640.0, 'init_ShelterA_1_149': 640.0, 'init_ShelterA_1_150': 640.0, 'init_ShelterA_1_151': 640.0, 'init_ShelterA_1_152': 640.0, 'init_ShelterA_1_153': 640.0, 'init_ShelterA_1_154': 640.0, 'init_ShelterA_1_156': 640.0, 'init_ShelterA_1_157': 640.0, 'init_ShelterA_1_159': 640.0, 'init_ShelterA_1_160': 640.0, 'init_ShelterA_1_161': 640.0, 'init_ShelterA_1_162': 640.0, 'init_ShelterA_1_168': 640.0, 'init_ShelterA_2_155': 640.0, 'init_ShelterA_2_158': 640.0, 'init_ShelterA_2_163': 640.0, 'init_ShelterA_1_167': 650.0, 'init_ShelterA_1_109': 680.0, 'init_ShelterA_1_169': 690.0, 'init_ShelterA_2_122': 690.0, 'init_ShelterA_1_116': 700.0, 'init_ShelterA_1_117': 700.0, 'init_ShelterA_1_119': 700.0, 'init_ShelterA_1_123': 700.0, 'init_ShelterA_1_114': 710.0, 'init_ShelterA_1_115': 710.0, 'init_ShelterA_1_171': 710.0, 'init_ShelterA_2_175': 710.0, 'init_ShelterA_1_113': 720.0, 'init_ShelterA_1_179': 720.0, 'init_ShelterA_1_181': 720.0, 'init_ShelterA_2_180': 720.0, 'init_ShelterA_1_108': 730.0, 'init_ShelterA_1_111': 730.0, 'init_ShelterA_1_112': 730.0, 'init_ShelterA_1_170': 730.0, 'init_ShelterA_1_172': 730.0, 'init_ShelterA_1_173': 730.0, 'init_ShelterA_1_174': 730.0, 'init_ShelterA_1_176': 730.0, 'init_ShelterA_1_177': 730.0, 'init_ShelterA_1_178': 730.0, 'init_ShelterA_1_182': 730.0, 'init_ShelterA_1_106': 740.0, 'init_ShelterA_1_107': 740.0, 'init_ShelterA_1_110': 740.0, 'init_ShelterA_1_118': 740.0, 'init_ShelterA_1_124': 740.0, 'init_ShelterA_1_120': 750.0, 'init_ShelterA_1_126': 750.0, 'init_ShelterA_2_187': 750.0, 'init_ShelterA_1_125': 760.0, 'init_ShelterA_1_129': 760.0, 'init_ShelterA_1_130': 760.0, 'init_ShelterA_1_133': 760.0, 'init_ShelterA_1_127': 770.0, 'init_ShelterA_1_128': 770.0, 'init_ShelterA_1_132': 770.0, 'init_ShelterA_2_135': 770.0, 'init_ShelterA_2_140': 770.0, 'init_ShelterA_2_141': 770.0, 'init_ShelterA_1_138': 780.0, 'init_ShelterA_1_194': 790.0, 'init_ShelterA_2_197': 820.0, 'init_ShelterA_1_143': 840.0, 'init_ShelterA_1_144': 840.0, 'init_ShelterA_1_139': 850.0, 'init_ShelterA_1_204': 870.0, 'init_ShelterA_1_211': 870.0, 'init_ShelterA_1_213': 870.0, 'init_ShelterA_2_209': 870.0, 'init_ShelterA_1_215': 890.0, 'init_ShelterA_2_219': 890.0, 'init_ShelterA_1_205': 900.0, 'init_ShelterA_1_206': 900.0, 'init_ShelterA_1_207': 900.0, 'init_ShelterA_1_208': 900.0, 'init_ShelterA_1_210': 900.0, 'init_ShelterA_1_212': 900.0, 'init_ShelterA_1_214': 900.0, 'init_ShelterA_1_216': 900.0, 'init_ShelterA_1_217': 900.0, 'init_ShelterA_1_218': 900.0, 'init_ShelterA_1_233': 960.0, 'init_ShelterA_1_234': 960.0, 'init_ShelterA_1_235': 960.0, 'init_ShelterA_1_239': 1000.0, 'init_ShelterA_1_242': 1000.0, 'init_ShelterA_1_190': 1020.0, 'init_ShelterA_1_193': 1030.0, 'init_ShelterA_2_244': 1030.0, 'init_ShelterA_1_252': 1050.0, 'init_ShelterA_1_253': 1050.0, 'init_ShelterA_1_254': 1050.0, 'init_ShelterA_1_255': 1050.0, 'init_ShelterA_1_256': 1050.0, 'init_ShelterA_2_246': 1050.0, 'init_ShelterA_1_247': 1060.0, 'init_ShelterA_1_248': 1060.0, 'init_ShelterA_1_251': 1060.0, 'init_ShelterA_1_257': 1060.0, 'init_ShelterA_1_258': 1060.0, 'init_ShelterA_1_259': 1060.0, 'init_ShelterA_2_260': 1060.0, 'init_ShelterA_1_245': 1070.0, 'init_ShelterA_1_249': 1070.0, 'init_ShelterA_1_261': 1070.0, 'init_ShelterA_2_201': 1080.0, 'init_ShelterA_1_189': 1090.0, 'init_ShelterA_1_192': 1090.0, 'init_ShelterA_1_286': 1160.0, 'init_ShelterA_2_287': 1170.0, 'init_ShelterA_1_195': 1180.0, 'init_ShelterA_1_196': 1180.0, 'init_ShelterA_1_200': 1180.0, 'init_ShelterA_2_237': 1180.0, 'init_ShelterA_1_199': 1190.0, 'init_ShelterA_1_220': 1190.0, 'init_ShelterA_1_221': 1190.0, 'init_ShelterA_1_225': 1190.0, 'init_ShelterA_1_230': 1210.0, 'init_ShelterA_1_231': 1210.0, 'init_ShelterA_1_227': 1220.0, 'init_ShelterA_1_222': 1230.0, 'init_ShelterA_1_289': 1240.0, 'init_ShelterA_1_263': 1270.0, 'init_ShelterA_2_264': 1270.0, 'init_ShelterA_1_262': 1280.0, 'init_ShelterA_1_265': 1280.0, 'init_ShelterA_1_267': 1280.0, 'init_ShelterA_1_282': 1310.0, 'init_ShelterA_1_297': 1310.0, 'init_ShelterA_1_296': 1320.0, 'init_ShelterA_1_304': 1320.0, 'init_ShelterA_1_306': 1320.0, 'init_ShelterA_1_307': 1320.0, 'init_ShelterA_1_308': 1320.0, 'init_ShelterA_1_310': 1320.0, 'init_ShelterA_2_309': 1320.0, 'init_ShelterA_1_271': 1330.0, 'init_ShelterA_1_298': 1330.0, 'init_ShelterA_1_300': 1330.0, 'init_ShelterA_1_311': 1330.0, 'init_ShelterA_1_312': 1330.0, 'init_ShelterA_1_313': 1330.0, 'init_ShelterA_1_314': 1330.0, 'init_ShelterA_1_273': 1340.0, 'init_ShelterA_1_274': 1340.0, 'init_ShelterA_1_276': 1350.0, 'init_ShelterA_1_278': 1350.0, 'init_ShelterA_1_277': 1360.0, 'init_ShelterA_1_279': 1360.0, 'init_ShelterA_1_281': 1360.0, 'init_ShelterA_1_285': 1380.0, 'init_ShelterA_1_288': 1380.0, 'init_ShelterA_1_290': 1390.0, 'init_ShelterA_1_283': 1400.0, 'init_ShelterA_1_275': 1410.0, 'init_ShelterA_1_270': 1420.0, 'init_ShelterA_1_272': 1420.0, 'init_ShelterA_1_280': 1420.0, 'init_ShelterA_1_284': 1420.0, 'init_ShelterA_1_266': 1430.0, 'init_ShelterA_2_341': 1430.0, 'init_ShelterA_2_348': 1450.0, 'init_ShelterA_2_350': 1460.0, 'init_ShelterA_2_355': 1470.0, 'init_ShelterA_1_343': 1480.0, 'init_ShelterA_1_346': 1480.0, 'init_ShelterA_1_356': 1480.0, 'init_ShelterA_1_357': 1480.0, 'init_ShelterA_1_358': 1480.0, 'init_ShelterA_1_359': 1480.0, 'init_ShelterA_1_344': 1490.0, 'init_ShelterA_1_347': 1490.0, 'init_ShelterA_1_353': 1490.0, 'init_ShelterA_1_360': 1490.0, 'init_ShelterA_1_361': 1490.0, 'init_ShelterA_1_362': 1490.0, 'init_ShelterA_1_363': 1490.0, 'init_ShelterA_2_292': 1490.0, 'init_ShelterA_1_366': 1500.0, 'init_ShelterA_1_294': 1510.0, 'init_ShelterA_1_293': 1520.0, 'init_ShelterA_1_321': 1530.0, 'init_ShelterA_1_374': 1560.0, 'init_ShelterA_1_375': 1580.0, 'init_ShelterA_1_325': 1600.0, 'init_ShelterA_1_332': 1600.0, 'init_ShelterA_1_329': 1610.0, 'init_ShelterA_1_333': 1610.0, 'init_ShelterA_1_334': 1610.0, 'init_ShelterA_1_337': 1620.0, 'init_ShelterA_1_351': 1640.0, 'init_ShelterA_1_352': 1640.0, 'init_ShelterA_1_349': 1650.0, 'init_ShelterA_1_354': 1650.0, 'init_ShelterA_1_367': 1650.0, 'init_ShelterA_1_369': 1650.0, 'init_ShelterA_2_393': 1650.0, 'init_ShelterA_1_365': 1660.0, 'init_ShelterA_1_388': 1660.0, 'init_ShelterA_2_395': 1660.0, 'init_ShelterA_1_339': 1680.0, 'init_ShelterA_1_338': 1690.0, 'init_ShelterA_1_340': 1690.0, 'init_ShelterA_1_345': 1690.0, 'init_ShelterA_1_364': 1690.0, 'init_ShelterA_1_368': 1690.0, 'init_ShelterA_1_370': 1690.0, 'init_ShelterA_1_331': 1700.0, 'init_ShelterA_1_371': 1700.0, 'init_ShelterA_1_327': 1710.0, 'init_ShelterA_1_328': 1710.0, 'init_ShelterA_1_324': 1730.0, 'init_ShelterA_2_383': 1860.0, 'init_ShelterA_1_381': 1870.0, 'init_ShelterA_1_387': 1870.0, 'init_ShelterA_1_379': 1880.0, 'init_ShelterA_1_382': 1880.0, 'init_ShelterA_1_389': 1990.0, 'init_ShelterA_1_385': 2000.0, 'init_ShelterA_1_391': 2000.0, 'init_ShelterA_1_399': 2000.0, 'init_ShelterA_1_398': 2010.0}
pedestrian_count:0
route_changed_vehicle_count:271
route_change_event_count:271
rate_vehicle_abandonment:0.00%
wrong_way_driving_count:0
vehicle_abandonment_count:0
normalcy_bias_route_change_count:151
majority_bias_route_change_count:120
lane_changed_vehicle_count:0
info_obtained_lanechange_count:0
elapsed_time_lanechange_count:0
majority_bias_lanechange_count:0

=== Job Result ===
end=2026-07-13T02:29:05+0900
elapsed_seconds=438
exit_code=0
status=SUCCESS
