=== Job Info ===
job_name=va_s5_e1.0_v1.0_r12
host=schubert
pid=116392
scenario=5
early_rate=1.0
v2v_rate=1.0
run_id=12
config=/home/katagi/vehicle-assistant-system/scenarios/JIP/configs/config_scenario_5.toml
output_dir=/home/katagi/vehicle-assistant-system/schubert_logs/va_s5_e1.0_v1.0_r12
start=2026-07-13T01:32:16+0900
python_version=Python 3.12.3
sumo_version=Eclipse SUMO sumo Version v1_23_1+0435-630512a

=== Command ===
cd /home/katagi/vehicle-assistant-system/schubert_logs/va_s5_e1.0_v1.0_r12
PYTHONPATH=/home/katagi/vehicle-assistant-system:/home/katagi/tmp/sumo/tools:/home/katagi/local/sumo/tools:/home/katagi/tmp/sumo/tools:/home/katagi/local/sumo/tools:/home/katagi/tmp/sumo/tools:/home/katagi/local/sumo/tools: python3 -W ignore::UserWarning -m scenarios.JIP.1-1-4.simulation.runner_simulator --nogui /home/katagi/vehicle-assistant-system/scenarios/JIP/configs/config_scenario_5.toml 1.0 1.0
simulation_pid=116412
Step #0.00 (0ms ?*RT. ?UPS, TraCI: 338ms, vehicles TOT 1 ACT 1 BUF 0)                     Step #100.00 (0ms ?*RT. ?UPS, TraCI: 18ms, vehicles TOT 26 ACT 26 BUF 0)                  Step #200.00 (0ms ?*RT. ?UPS, TraCI: 39ms, vehicles TOT 51 ACT 51 BUF 0)                  Step #300.00 (0ms ?*RT. ?UPS, TraCI: 57ms, vehicles TOT 77 ACT 77 BUF 0)                  Step #400.00 (1ms ~= 1000.00*RT, ~104000.00UPS, TraCI: 1923ms, vehicles TOT 104 ACT 104 BUStep #500.00 (1ms ~= 1000.00*RT, ~131000.00UPS, TraCI: 1892ms, vehicles TOT 131 ACT 131 BUStep #600.00 (1ms ~= 1000.00*RT, ~158000.00UPS, TraCI: 2058ms, vehicles TOT 158 ACT 158 BUStep #700.00 (1ms ~= 1000.00*RT, ~183000.00UPS, TraCI: 1905ms, vehicles TOT 183 ACT 183 BUStep #800.00 (1ms ~= 1000.00*RT, ~205000.00UPS, TraCI: 1788ms, vehicles TOT 205 ACT 205 BUStep #900.00 (0ms ?*RT. ?UPS, TraCI: 2643ms, vehicles TOT 237 ACT 211 BUF 33)             Step #1000.00 (1ms ~= 1000.00*RT, ~232000.00UPS, TraCI: 3475ms, vehicles TOT 268 ACT 232 BStep #1100.00 (1ms ~= 1000.00*RT, ~253000.00UPS, TraCI: 1871ms, vehicles TOT 302 ACT 253 BStep #1200.00 (1ms ~= 1000.00*RT, ~269000.00UPS, TraCI: 2298ms, vehicles TOT 321 ACT 269 BStep #1300.00 (1ms ~= 1000.00*RT, ~297000.00UPS, TraCI: 2828ms, vehicles TOT 354 ACT 297 BStep #1400.00 (0ms ?*RT. ?UPS, TraCI: 3308ms, vehicles TOT 391 ACT 314 BUF 86)            Step #1500.00 (1ms ~= 1000.00*RT, ~337000.00UPS, TraCI: 3361ms, vehicles TOT 427 ACT 337 BStep #1600.00 (0ms ?*RT. ?UPS, TraCI: 3450ms, vehicles TOT 457 ACT 358 BUF 42)            Step #1700.00 (0ms ?*RT. ?UPS, TraCI: 3114ms, vehicles TOT 470 ACT 371 BUF 29)            Step #1800.00 (1ms ~= 1000.00*RT, ~399000.00UPS, TraCI: 3253ms, vehicles TOT 501 ACT 399 BStep #1900.00 (0ms ?*RT. ?UPS, TraCI: 2861ms, vehicles TOT 502 ACT 400 BUF 0)             Step #2000.00 (0ms ?*RT. ?UPS, TraCI: 2149ms, vehicles TOT 502 ACT 400 BUF 0)             Step #2100.00 (1ms ~= 1000.00*RT, ~400000.00UPS, TraCI: 1603ms, vehicles TOT 502 ACT 400 BStep #2200.00 (0ms ?*RT. ?UPS, TraCI: 1094ms, vehicles TOT 502 ACT 400 BUF 0)             Step #2300.00 (0ms ?*RT. ?UPS, TraCI: 577ms, vehicles TOT 502 ACT 400 BUF 0)              Step #2400.00 (0ms ?*RT. ?UPS, TraCI: 97ms, vehicles TOT 502 ACT 400 BUF 0)               Step #2500.00 (0ms ?*RT. ?UPS, TraCI: 97ms, vehicles TOT 502 ACT 400 BUF 0)               Step #2600.00 (0ms ?*RT. ?UPS, TraCI: 74ms, vehicles TOT 502 ACT 400 BUF 0)               Step #2700.00 (0ms ?*RT. ?UPS, TraCI: 77ms, vehicles TOT 502 ACT 400 BUF 0)               Step #2800.00 (0ms ?*RT. ?UPS, TraCI: 77ms, vehicles TOT 502 ACT 400 BUF 0)               Step #2900.00 (0ms ?*RT. ?UPS, TraCI: 79ms, vehicles TOT 502 ACT 400 BUF 0)               Step #3000.00 (0ms ?*RT. ?UPS, TraCI: 77ms, vehicles TOT 502 ACT 400 BUF 0)               
 Retrying in 1 seconds
出現数: {'A1': 367, 'A2': 33}
割合:
  Total: 400
  A1: 367 (91.75%)
  A2: 33 (8.25%)
  B1: 0 (0.00%)
  B2: 0 (0.00%)
mean elapsed_time: 620.235
OK all vehs arrived 
平均渋滞継続時間: 523.51秒
OK all vehicle abandonment were detected
297
103
===== Simlation Result Summary =====
avg_congestion_duration: 523.51 
arrival_time_by_vehID_dict:{'init_ShelterA_1_0': 210.0, 'init_ShelterA_1_2': 216.0, 'init_ShelterA_1_3': 224.0, 'init_ShelterA_1_4': 228.0, 'init_ShelterA_1_5': 296.0, 'init_ShelterA_1_6': 303.0, 'init_ShelterA_1_7': 308.0, 'init_ShelterA_1_9': 314.0, 'init_ShelterA_1_10': 319.0, 'init_ShelterA_2_1': 320.0, 'init_ShelterA_1_11': 325.0, 'init_ShelterA_1_12': 332.0, 'init_ShelterA_1_13': 339.0, 'init_ShelterA_1_14': 347.0, 'init_ShelterA_1_15': 356.0, 'init_ShelterA_1_16': 365.0, 'init_ShelterA_1_17': 374.0, 'init_ShelterA_2_8': 379.0, 'init_ShelterA_1_19': 383.0, 'init_ShelterA_1_20': 392.0, 'init_ShelterA_1_21': 401.0, 'init_ShelterA_1_22': 411.0, 'init_ShelterA_1_23': 420.0, 'init_ShelterA_2_18': 427.0, 'init_ShelterA_1_24': 430.0, 'init_ShelterA_1_25': 440.0, 'init_ShelterA_1_26': 450.0, 'init_ShelterA_1_27': 459.0, 'init_ShelterA_1_28': 469.0, 'init_ShelterA_1_29': 479.0, 'init_ShelterA_2_32': 480.0, 'init_ShelterA_1_30': 488.0, 'init_ShelterA_1_31': 498.0, 'init_ShelterA_2_37': 501.0, 'init_ShelterA_1_33': 508.0, 'init_ShelterA_1_34': 517.0, 'init_ShelterA_1_35': 527.0, 'init_ShelterA_1_36': 537.0, 'init_ShelterA_1_38': 546.0, 'init_ShelterA_1_39': 556.0, 'init_ShelterA_1_40': 565.0, 'init_ShelterA_1_41': 575.0, 'init_ShelterA_1_42': 585.0, 'init_ShelterA_1_43': 594.0, 'init_ShelterA_1_44': 603.0, 'init_ShelterA_1_45': 613.0, 'init_ShelterA_1_46': 623.0, 'init_ShelterA_1_47': 632.0, 'init_ShelterA_1_48': 641.0, 'init_ShelterA_1_49': 651.0, 'init_ShelterA_1_50': 660.0, 'init_ShelterA_1_63': 663.0, 'init_ShelterA_1_69': 666.0, 'init_ShelterA_1_51': 669.0, 'init_ShelterA_2_52': 671.0, 'init_ShelterA_1_53': 682.0, 'init_ShelterA_1_54': 691.0, 'init_ShelterA_1_55': 701.0, 'init_ShelterA_1_56': 710.0, 'init_ShelterA_1_57': 720.0, 'init_ShelterA_1_58': 729.0, 'init_ShelterA_1_59': 738.0, 'init_ShelterA_1_75': 741.0, 'init_ShelterA_1_60': 748.0, 'init_ShelterA_1_88': 756.0, 'init_ShelterA_1_61': 757.0, 'init_ShelterA_1_62': 766.0, 'init_ShelterA_1_64': 775.0, 'init_ShelterA_1_65': 784.0, 'init_ShelterA_1_66': 794.0, 'init_ShelterA_1_67': 803.0, 'init_ShelterA_1_68': 812.0, 'init_ShelterA_1_70': 821.0, 'init_ShelterA_1_91': 828.0, 'init_ShelterA_1_71': 830.0, 'init_ShelterA_1_92': 830.0, 'init_ShelterA_1_95': 833.0, 'init_ShelterA_1_97': 836.0, 'init_ShelterA_1_72': 839.0, 'init_ShelterA_2_73': 841.0, 'init_ShelterA_1_74': 851.0, 'init_ShelterA_1_100': 857.0, 'init_ShelterA_1_102': 859.0, 'init_ShelterA_1_76': 860.0, 'init_ShelterA_1_103': 862.0, 'init_ShelterA_1_104': 865.0, 'init_ShelterA_1_105': 868.0, 'init_ShelterA_1_77': 869.0, 'init_ShelterA_1_78': 879.0, 'init_ShelterA_1_79': 888.0, 'init_ShelterA_1_80': 897.0, 'init_ShelterA_1_81': 906.0, 'init_ShelterA_1_82': 915.0, 'init_ShelterA_1_83': 924.0, 'init_ShelterA_1_84': 933.0, 'init_ShelterA_1_107': 934.0, 'init_ShelterA_1_108': 936.0, 'init_ShelterA_1_109': 939.0, 'init_ShelterA_1_112': 942.0, 'init_ShelterA_1_85': 942.0, 'init_ShelterA_1_86': 951.0, 'init_ShelterA_1_116': 954.0, 'init_ShelterA_1_118': 956.0, 'init_ShelterA_1_119': 959.0, 'init_ShelterA_1_87': 960.0, 'init_ShelterA_1_122': 962.0, 'init_ShelterA_1_123': 965.0, 'init_ShelterA_1_89': 969.0, 'init_ShelterA_1_90': 978.0, 'init_ShelterA_1_93': 987.0, 'init_ShelterA_1_94': 996.0, 'init_ShelterA_1_124': 1002.0, 'init_ShelterA_1_127': 1004.0, 'init_ShelterA_1_96': 1005.0, 'init_ShelterA_1_98': 1013.0, 'init_ShelterA_1_128': 1014.0, 'init_ShelterA_1_129': 1016.0, 'init_ShelterA_1_131': 1018.0, 'init_ShelterA_1_134': 1021.0, 'init_ShelterA_1_99': 1022.0, 'init_ShelterA_1_135': 1024.0, 'init_ShelterA_1_136': 1027.0, 'init_ShelterA_1_101': 1031.0, 'init_ShelterA_1_139': 1031.0, 'init_ShelterA_1_140': 1035.0, 'init_ShelterA_1_106': 1040.0, 'init_ShelterA_1_110': 1049.0, 'init_ShelterA_1_111': 1058.0, 'init_ShelterA_1_113': 1066.0, 'init_ShelterA_1_114': 1075.0, 'init_ShelterA_1_147': 1083.0, 'init_ShelterA_1_115': 1084.0, 'init_ShelterA_1_117': 1092.0, 'init_ShelterA_1_120': 1101.0, 'init_ShelterA_2_121': 1104.0, 'init_ShelterA_1_125': 1113.0, 'init_ShelterA_1_126': 1122.0, 'init_ShelterA_1_130': 1131.0, 'init_ShelterA_1_132': 1140.0, 'init_ShelterA_1_151': 1144.0, 'init_ShelterA_1_133': 1149.0, 'init_ShelterA_1_152': 1154.0, 'init_ShelterA_1_154': 1156.0, 'init_ShelterA_1_137': 1158.0, 'init_ShelterA_1_138': 1167.0, 'init_ShelterA_1_141': 1175.0, 'init_ShelterA_1_142': 1184.0, 'init_ShelterA_1_169': 1187.0, 'init_ShelterA_1_143': 1193.0, 'init_ShelterA_1_144': 1202.0, 'init_ShelterA_2_145': 1204.0, 'init_ShelterA_1_146': 1213.0, 'init_ShelterA_2_148': 1216.0, 'init_ShelterA_1_170': 1217.0, 'init_ShelterA_1_171': 1219.0, 'init_ShelterA_1_173': 1221.0, 'init_ShelterA_1_149': 1226.0, 'init_ShelterA_1_150': 1235.0, 'init_ShelterA_1_153': 1244.0, 'init_ShelterA_1_155': 1253.0, 'init_ShelterA_1_175': 1255.0, 'init_ShelterA_1_156': 1263.0, 'init_ShelterA_1_157': 1272.0, 'init_ShelterA_1_158': 1281.0, 'init_ShelterA_1_176': 1284.0, 'init_ShelterA_1_177': 1285.0, 'init_ShelterA_1_178': 1287.0, 'init_ShelterA_1_159': 1290.0, 'init_ShelterA_1_203': 1290.0, 'init_ShelterA_1_206': 1293.0, 'init_ShelterA_1_160': 1299.0, 'init_ShelterA_1_161': 1308.0, 'init_ShelterA_1_207': 1316.0, 'init_ShelterA_1_162': 1317.0, 'init_ShelterA_1_208': 1318.0, 'init_ShelterA_1_209': 1320.0, 'init_ShelterA_1_210': 1323.0, 'init_ShelterA_1_163': 1326.0, 'init_ShelterA_1_212': 1326.0, 'init_ShelterA_1_164': 1335.0, 'init_ShelterA_2_165': 1337.0, 'init_ShelterA_1_166': 1347.0, 'init_ShelterA_1_167': 1356.0, 'init_ShelterA_1_168': 1365.0, 'init_ShelterA_1_172': 1374.0, 'newveh_ShelterA_2_181_0': 1379.0, 'init_ShelterA_1_174': 1384.0, 'newveh_ShelterA_2_196_14': 1387.0, 'init_ShelterA_1_179': 1393.0, 'newveh_ShelterA_2_195_13': 1394.0, 'init_ShelterA_2_180': 1395.0, 'newveh_ShelterA_2_194_12': 1401.0, 'init_ShelterA_1_205': 1404.0, 'newveh_ShelterA_2_193_11': 1408.0, 'init_ShelterA_1_211': 1412.0, 'newveh_ShelterA_2_192_10': 1415.0, 'init_ShelterA_1_213': 1420.0, 'newveh_ShelterA_2_191_9': 1423.0, 'init_ShelterA_1_214': 1427.0, 'newveh_ShelterA_2_190_8': 1431.0, 'newveh_ShelterA_1_182_22': 1436.0, 'newveh_ShelterA_2_189_7': 1440.0, 'init_ShelterA_1_218': 1446.0, 'newveh_ShelterA_2_188_6': 1450.0, 'init_ShelterA_1_220': 1455.0, 'newveh_ShelterA_2_187_5': 1459.0, 'init_ShelterA_1_223': 1464.0, 'newveh_ShelterA_2_186_4': 1469.0, 'init_ShelterA_1_225': 1473.0, 'newveh_ShelterA_2_185_3': 1479.0, 'init_ShelterA_1_226': 1482.0, 'newveh_ShelterA_2_184_2': 1488.0, 'init_ShelterA_1_228': 1491.0, 'newveh_ShelterA_2_183_1': 1498.0, 'init_ShelterA_1_230': 1499.0, 'newveh_ShelterA_2_198_16': 1508.0, 'init_ShelterA_1_231': 1509.0, 'init_ShelterA_1_235': 1518.0, 'newveh_ShelterA_2_197_15': 1518.0, 'init_ShelterA_1_236': 1527.0, 'newveh_ShelterA_2_199_17': 1527.0, 'newveh_ShelterA_2_200_18': 1536.0, 'init_ShelterA_1_238': 1537.0, 'newveh_ShelterA_2_201_19': 1542.0, 'init_ShelterA_1_239': 1547.0, 'newveh_ShelterA_2_204_21': 1548.0, 'init_ShelterA_1_240': 1556.0, 'newveh_ShelterA_2_202_20': 1556.0, 'newveh_ShelterA_2_217_25': 1564.0, 'init_ShelterA_1_241': 1565.0, 'newveh_ShelterA_2_216_24': 1568.0, 'newveh_ShelterA_2_215_23': 1572.0, 'init_ShelterA_1_242': 1575.0, 'init_ShelterA_1_243': 1584.0, 'newveh_ShelterA_1_227_26': 1594.0, 'init_ShelterA_1_257': 1603.0, 'newveh_ShelterA_2_229_27': 1612.0, 'init_ShelterA_1_258': 1613.0, 'init_ShelterA_1_259': 1622.0, 'init_ShelterA_1_260': 1631.0, 'newveh_ShelterA_2_273_61': 1640.0, 'init_ShelterA_1_261': 1641.0, 'newveh_ShelterA_2_219_28': 1646.0, 'init_ShelterA_1_262': 1650.0, 'newveh_ShelterA_2_234_33': 1654.0, 'newveh_ShelterA_2_232_32': 1658.0, 'init_ShelterA_1_263': 1659.0, 'init_ShelterA_1_264': 1668.0, 'newveh_ShelterA_2_224_31': 1675.0, 'init_ShelterA_1_265': 1678.0, 'newveh_ShelterA_2_222_30': 1681.0, 'newveh_ShelterA_2_221_29': 1686.0, 'init_ShelterA_1_266': 1687.0, 'newveh_ShelterA_1_233_34': 1696.0, 'init_ShelterA_1_267': 1705.0, 'newveh_ShelterA_1_237_35': 1714.0, 'init_ShelterA_1_271': 1723.0, 'init_ShelterA_1_272': 1732.0, 'init_ShelterA_1_274': 1741.0, 'init_ShelterA_1_275': 1750.0, 'init_ShelterA_2_276': 1752.0, 'newveh_ShelterA_2_246_36': 1752.0, 'init_ShelterA_1_277': 1762.0, 'init_ShelterA_1_278': 1771.0, 'newveh_ShelterA_2_244_39': 1773.0, 'init_ShelterA_1_279': 1780.0, 'init_ShelterA_1_280': 1789.0, 'init_ShelterA_1_281': 1798.0, 'init_ShelterA_1_282': 1808.0, 'init_ShelterA_1_283': 1817.0, 'init_ShelterA_2_284': 1819.0, 'newveh_ShelterA_2_254_47': 1821.0, 'init_ShelterA_1_285': 1829.0, 'newveh_ShelterA_2_252_46': 1829.0, 'newveh_ShelterA_2_251_45': 1833.0, 'init_ShelterA_1_286': 1838.0, 'newveh_ShelterA_2_250_44': 1842.0, 'newveh_ShelterA_1_253_37': 1847.0, 'newveh_ShelterA_2_249_43': 1854.0, 'newveh_ShelterA_1_255_38': 1857.0, 'newveh_ShelterA_2_248_42': 1862.0, 'init_ShelterA_1_289': 1866.0, 'newveh_ShelterA_2_247_41': 1870.0, 'init_ShelterA_1_292': 1875.0, 'newveh_ShelterA_2_245_40': 1875.0, 'newveh_ShelterA_2_256_48': 1879.0, 'init_ShelterA_1_293': 1884.0, 'init_ShelterA_1_294': 1893.0, 'init_ShelterA_1_295': 1902.0, 'init_ShelterA_1_312': 1906.0, 'init_ShelterA_1_296': 1911.0, 'init_ShelterA_1_298': 1920.0, 'newveh_ShelterA_2_268_49': 1928.0, 'init_ShelterA_1_299': 1929.0, 'newveh_ShelterA_2_270_51': 1932.0, 'init_ShelterA_1_300': 1938.0, 'newveh_ShelterA_2_269_50': 1946.0, 'init_ShelterA_1_302': 1947.0, 'init_ShelterA_1_317': 1948.0, 'init_ShelterA_1_319': 1950.0, 'init_ShelterA_1_321': 1952.0, 'init_ShelterA_1_303': 1956.0, 'init_ShelterA_1_304': 1965.0, 'init_ShelterA_1_324': 1971.0, 'init_ShelterA_1_329': 1973.0, 'init_ShelterA_1_306': 1974.0, 'init_ShelterA_1_307': 1983.0, 'init_ShelterA_1_309': 1991.0, 'init_ShelterA_1_311': 2000.0, 'init_ShelterA_1_333': 2002.0, 'init_ShelterA_1_313': 2009.0, 'init_ShelterA_1_320': 2018.0, 'newveh_ShelterA_2_291_54': 2021.0, 'init_ShelterA_1_322': 2027.0, 'newveh_ShelterA_2_290_53': 2030.0, 'newveh_ShelterA_2_288_52': 2034.0, 'init_ShelterA_1_337': 2036.0, 'init_ShelterA_1_338': 2044.0, 'init_ShelterA_1_339': 2053.0, 'init_ShelterA_1_341': 2062.0, 'init_ShelterA_2_342': 2064.0, 'init_ShelterA_1_344': 2074.0, 'init_ShelterA_2_345': 2076.0, 'init_ShelterA_1_346': 2086.0, 'newveh_ShelterA_1_287_55': 2095.0, 'init_ShelterA_1_350': 2104.0, 'init_ShelterA_1_351': 2113.0, 'newveh_ShelterA_2_310_57': 2114.0, 'init_ShelterA_1_353': 2123.0, 'init_ShelterA_1_354': 2132.0, 'init_ShelterA_1_355': 2141.0, 'newveh_ShelterA_2_305_60': 2144.0, 'newveh_ShelterA_2_297_59': 2148.0, 'init_ShelterA_1_357': 2150.0, 'init_ShelterA_1_362': 2159.0, 'init_ShelterA_1_363': 2168.0, 'newveh_ShelterA_1_301_56': 2177.0, 'init_ShelterA_1_366': 2186.0, 'init_ShelterA_1_367': 2195.0, 'newveh_ShelterA_2_316_62': 2203.0, 'init_ShelterA_1_368': 2204.0, 'init_ShelterA_1_370': 2213.0, 'newveh_ShelterA_2_326_63': 2213.0, 'newveh_ShelterA_2_327_64': 2217.0, 'newveh_ShelterA_2_328_65': 2221.0, 'init_ShelterA_1_371': 2222.0, 'init_ShelterA_1_372': 2230.0, 'init_ShelterA_1_373': 2239.0, 'newveh_ShelterA_2_314_66': 2241.0, 'newveh_ShelterA_2_331_72': 2247.0, 'newveh_ShelterA_1_308_58': 2248.0, 'newveh_ShelterA_2_330_71': 2252.0, 'init_ShelterA_1_377': 2257.0, 'init_ShelterA_1_380': 2266.0, 'init_ShelterA_1_381': 2275.0, 'newveh_ShelterA_2_315_67': 2278.0, 'newveh_ShelterA_2_325_70': 2282.0, 'init_ShelterA_1_384': 2284.0, 'init_ShelterA_1_385': 2293.0, 'newveh_ShelterA_2_323_69': 2295.0, 'init_ShelterA_1_386': 2301.0, 'newveh_ShelterA_2_318_68': 2306.0, 'init_ShelterA_1_387': 2310.0, 'newveh_ShelterA_2_332_73': 2311.0, 'init_ShelterA_1_388': 2319.0, 'newveh_ShelterA_2_336_76': 2320.0, 'init_ShelterA_1_390': 2328.0, 'newveh_ShelterA_2_335_75': 2328.0, 'newveh_ShelterA_2_334_74': 2333.0, 'init_ShelterA_1_391': 2337.0, 'newveh_ShelterA_2_358_81': 2339.0, 'init_ShelterA_1_392': 2345.0, 'newveh_ShelterA_2_356_80': 2347.0, 'newveh_ShelterA_2_360_82': 2352.0, 'init_ShelterA_1_393': 2354.0, 'newveh_ShelterA_2_361_83': 2356.0, 'newveh_ShelterA_2_347_85': 2361.0, 'init_ShelterA_1_394': 2362.0, 'init_ShelterA_2_395': 2365.0, 'init_ShelterA_1_396': 2374.0, 'newveh_ShelterA_1_340_77': 2383.0, 'newveh_ShelterA_1_343_78': 2392.0, 'newveh_ShelterA_2_364_88': 2393.0, 'newveh_ShelterA_2_365_89': 2399.0, 'newveh_ShelterA_1_349_79': 2401.0, 'newveh_ShelterA_2_352_87': 2404.0, 'newveh_ShelterA_1_359_84': 2407.0, 'newveh_ShelterA_1_375_91': 2412.0, 'newveh_ShelterA_2_348_86': 2412.0, 'newveh_ShelterA_1_369_90': 2417.0, 'newveh_ShelterA_2_374_93': 2417.0, 'newveh_ShelterA_1_376_92': 2421.0, 'newveh_ShelterA_2_378_94': 2423.0, 'newveh_ShelterA_2_389_98': 2429.0, 'newveh_ShelterA_2_382_96': 2435.0, 'newveh_ShelterA_2_379_95': 2441.0, 'newveh_ShelterA_2_383_97': 2446.0, 'newveh_ShelterA_2_397_99': 2454.0, 'newveh_ShelterA_2_398_100': 2459.0, 'newveh_ShelterA_2_399_101': 2463.0}
vehicle_abandant_time_by_pedestrianID_dict:{}
walking_distance_by_pedestrianID_dict:{}
route_change_time_by_vehID_dict:{'init_ShelterA_2_52': 410.0, 'init_ShelterA_1_69': 490.0, 'init_ShelterA_1_63': 500.0, 'init_ShelterA_1_75': 510.0, 'init_ShelterA_2_73': 510.0, 'init_ShelterA_1_88': 580.0, 'init_ShelterA_1_91': 590.0, 'init_ShelterA_1_92': 590.0, 'init_ShelterA_1_102': 640.0, 'init_ShelterA_1_97': 650.0, 'init_ShelterA_1_104': 660.0, 'init_ShelterA_1_105': 660.0, 'init_ShelterA_1_103': 670.0, 'init_ShelterA_1_100': 680.0, 'init_ShelterA_1_107': 680.0, 'init_ShelterA_1_108': 680.0, 'init_ShelterA_1_109': 680.0, 'init_ShelterA_1_112': 680.0, 'init_ShelterA_1_95': 680.0, 'init_ShelterA_2_121': 750.0, 'init_ShelterA_1_118': 760.0, 'init_ShelterA_1_119': 760.0, 'init_ShelterA_1_123': 760.0, 'init_ShelterA_1_116': 770.0, 'init_ShelterA_1_122': 770.0, 'init_ShelterA_1_124': 770.0, 'init_ShelterA_1_127': 770.0, 'init_ShelterA_1_129': 770.0, 'init_ShelterA_1_131': 770.0, 'init_ShelterA_1_135': 770.0, 'init_ShelterA_1_136': 770.0, 'init_ShelterA_1_181': 810.0, 'init_ShelterA_1_183': 810.0, 'init_ShelterA_1_184': 810.0, 'init_ShelterA_1_185': 810.0, 'init_ShelterA_1_186': 810.0, 'init_ShelterA_1_187': 810.0, 'init_ShelterA_1_188': 810.0, 'init_ShelterA_1_189': 810.0, 'init_ShelterA_1_190': 810.0, 'init_ShelterA_1_191': 810.0, 'init_ShelterA_1_192': 810.0, 'init_ShelterA_1_193': 810.0, 'init_ShelterA_1_194': 810.0, 'init_ShelterA_1_195': 810.0, 'init_ShelterA_1_196': 810.0, 'init_ShelterA_1_197': 810.0, 'init_ShelterA_1_198': 810.0, 'init_ShelterA_1_199': 810.0, 'init_ShelterA_1_200': 810.0, 'init_ShelterA_1_201': 810.0, 'init_ShelterA_1_202': 810.0, 'init_ShelterA_1_204': 810.0, 'init_ShelterA_2_182': 810.0, 'init_ShelterA_1_139': 830.0, 'init_ShelterA_1_140': 830.0, 'init_ShelterA_1_134': 840.0, 'init_ShelterA_1_128': 850.0, 'init_ShelterA_1_215': 850.0, 'init_ShelterA_1_216': 850.0, 'init_ShelterA_1_217': 850.0, 'init_ShelterA_2_145': 850.0, 'init_ShelterA_2_148': 850.0, 'init_ShelterA_1_147': 860.0, 'init_ShelterA_1_151': 860.0, 'init_ShelterA_1_152': 870.0, 'init_ShelterA_1_154': 870.0, 'init_ShelterA_2_165': 940.0, 'init_ShelterA_2_227': 960.0, 'init_ShelterA_1_229': 970.0, 'init_ShelterA_1_219': 980.0, 'init_ShelterA_1_221': 980.0, 'init_ShelterA_1_222': 980.0, 'init_ShelterA_1_224': 980.0, 'init_ShelterA_1_232': 980.0, 'init_ShelterA_1_234': 980.0, 'init_ShelterA_2_233': 980.0, 'init_ShelterA_2_237': 990.0, 'init_ShelterA_2_180': 1020.0, 'init_ShelterA_1_176': 1030.0, 'init_ShelterA_1_178': 1030.0, 'init_ShelterA_1_203': 1030.0, 'init_ShelterA_1_206': 1030.0, 'init_ShelterA_1_207': 1030.0, 'init_ShelterA_1_208': 1030.0, 'init_ShelterA_1_209': 1030.0, 'init_ShelterA_1_210': 1030.0, 'init_ShelterA_1_212': 1030.0, 'init_ShelterA_1_173': 1040.0, 'init_ShelterA_1_175': 1040.0, 'init_ShelterA_1_177': 1040.0, 'init_ShelterA_1_169': 1050.0, 'init_ShelterA_1_170': 1050.0, 'init_ShelterA_1_171': 1050.0, 'init_ShelterA_1_246': 1050.0, 'init_ShelterA_2_253': 1050.0, 'init_ShelterA_2_255': 1050.0, 'init_ShelterA_1_244': 1070.0, 'init_ShelterA_1_245': 1070.0, 'init_ShelterA_1_247': 1070.0, 'init_ShelterA_1_248': 1070.0, 'init_ShelterA_1_249': 1070.0, 'init_ShelterA_1_250': 1070.0, 'init_ShelterA_1_251': 1070.0, 'init_ShelterA_1_252': 1070.0, 'init_ShelterA_1_254': 1070.0, 'init_ShelterA_1_256': 1070.0, 'init_ShelterA_1_268': 1130.0, 'init_ShelterA_1_269': 1130.0, 'init_ShelterA_1_270': 1130.0, 'init_ShelterA_1_288': 1240.0, 'init_ShelterA_1_290': 1240.0, 'init_ShelterA_1_291': 1240.0, 'init_ShelterA_2_287': 1240.0, 'init_ShelterA_2_301': 1300.0, 'init_ShelterA_1_310': 1320.0, 'init_ShelterA_2_308': 1320.0, 'init_ShelterA_1_297': 1330.0, 'init_ShelterA_1_305': 1330.0, 'init_ShelterA_2_276': 1350.0, 'init_ShelterA_1_273': 1360.0, 'init_ShelterA_1_316': 1380.0, 'init_ShelterA_1_326': 1380.0, 'init_ShelterA_1_327': 1380.0, 'init_ShelterA_1_328': 1380.0, 'init_ShelterA_1_314': 1390.0, 'init_ShelterA_1_315': 1390.0, 'init_ShelterA_1_318': 1390.0, 'init_ShelterA_1_323': 1390.0, 'init_ShelterA_1_325': 1390.0, 'init_ShelterA_1_330': 1390.0, 'init_ShelterA_1_331': 1390.0, 'init_ShelterA_1_332': 1390.0, 'init_ShelterA_1_334': 1400.0, 'init_ShelterA_1_335': 1400.0, 'init_ShelterA_1_336': 1400.0, 'init_ShelterA_2_340': 1410.0, 'init_ShelterA_2_343': 1420.0, 'init_ShelterA_2_284': 1430.0, 'init_ShelterA_2_349': 1470.0, 'init_ShelterA_1_356': 1480.0, 'init_ShelterA_1_358': 1480.0, 'init_ShelterA_1_360': 1480.0, 'init_ShelterA_1_361': 1480.0, 'init_ShelterA_2_359': 1480.0, 'init_ShelterA_1_347': 1490.0, 'init_ShelterA_1_348': 1490.0, 'init_ShelterA_1_352': 1490.0, 'init_ShelterA_1_364': 1490.0, 'init_ShelterA_1_365': 1490.0, 'init_ShelterA_2_369': 1510.0, 'init_ShelterA_2_375': 1540.0, 'init_ShelterA_2_376': 1560.0, 'init_ShelterA_1_374': 1580.0, 'init_ShelterA_1_378': 1580.0, 'init_ShelterA_1_379': 1580.0, 'init_ShelterA_1_382': 1580.0, 'init_ShelterA_1_383': 1580.0, 'init_ShelterA_1_389': 1580.0, 'init_ShelterA_2_345': 1670.0, 'init_ShelterA_2_342': 1680.0, 'init_ShelterA_1_329': 1690.0, 'init_ShelterA_1_333': 1690.0, 'init_ShelterA_1_319': 1700.0, 'init_ShelterA_1_324': 1700.0, 'init_ShelterA_1_317': 1730.0, 'init_ShelterA_1_321': 1730.0, 'init_ShelterA_1_312': 1740.0, 'init_ShelterA_1_397': 1740.0, 'init_ShelterA_1_398': 1750.0, 'init_ShelterA_1_399': 1750.0, 'init_ShelterA_2_395': 1860.0}
pedestrian_count:0
route_changed_vehicle_count:172
route_change_event_count:172
rate_vehicle_abandonment:0.00%
wrong_way_driving_count:0
vehicle_abandonment_count:0
normalcy_bias_route_change_count:116
majority_bias_route_change_count:56
lane_changed_vehicle_count:0
info_obtained_lanechange_count:0
elapsed_time_lanechange_count:0
majority_bias_lanechange_count:0

=== Job Result ===
end=2026-07-13T01:43:17+0900
elapsed_seconds=661
exit_code=0
status=SUCCESS
