=== Job Info ===
job_name=va_s2_e1.0_v1.0_r48
host=schubert
pid=109259
scenario=2
early_rate=1.0
v2v_rate=1.0
run_id=48
config=/home/katagi/vehicle-assistant-system/scenarios/JIP/configs/config_scenario_2.toml
output_dir=/home/katagi/vehicle-assistant-system/schubert_logs/va_s2_e1.0_v1.0_r48
start=2026-07-13T00:52:55+0900
python_version=Python 3.12.3
sumo_version=Eclipse SUMO sumo Version v1_23_1+0435-630512a

=== Command ===
cd /home/katagi/vehicle-assistant-system/schubert_logs/va_s2_e1.0_v1.0_r48
PYTHONPATH=/home/katagi/vehicle-assistant-system:/home/katagi/tmp/sumo/tools:/home/katagi/local/sumo/tools:/home/katagi/tmp/sumo/tools:/home/katagi/local/sumo/tools:/home/katagi/tmp/sumo/tools:/home/katagi/local/sumo/tools: python3 -W ignore::UserWarning -m scenarios.JIP.1-1-4.simulation.runner_simulator --nogui /home/katagi/vehicle-assistant-system/scenarios/JIP/configs/config_scenario_2.toml 1.0 1.0
simulation_pid=109279
Step #0.00 (0ms ?*RT. ?UPS, TraCI: 335ms, vehicles TOT 1 ACT 1 BUF 0)                     Step #100.00 (0ms ?*RT. ?UPS, TraCI: 18ms, vehicles TOT 26 ACT 26 BUF 0)                  Step #200.00 (1ms ~= 1000.00*RT, ~51000.00UPS, TraCI: 37ms, vehicles TOT 51 ACT 51 BUF 0) Step #300.00 (0ms ?*RT. ?UPS, TraCI: 54ms, vehicles TOT 77 ACT 77 BUF 0)                  Step #400.00 (1ms ~= 1000.00*RT, ~104000.00UPS, TraCI: 72ms, vehicles TOT 104 ACT 104 BUF Step #500.00 (0ms ?*RT. ?UPS, TraCI: 1759ms, vehicles TOT 131 ACT 131 BUF 0)              Step #600.00 (1ms ~= 1000.00*RT, ~158000.00UPS, TraCI: 1644ms, vehicles TOT 158 ACT 158 BUStep #700.00 (0ms ?*RT. ?UPS, TraCI: 974ms, vehicles TOT 186 ACT 186 BUF 0)               Step #800.00 (1ms ~= 1000.00*RT, ~210000.00UPS, TraCI: 596ms, vehicles TOT 210 ACT 210 BUFStep #900.00 (1ms ~= 1000.00*RT, ~213000.00UPS, TraCI: 1381ms, vehicles TOT 239 ACT 213 BUStep #1000.00 (1ms ~= 1000.00*RT, ~233000.00UPS, TraCI: 1473ms, vehicles TOT 273 ACT 233 BStep #1100.00 (0ms ?*RT. ?UPS, TraCI: 644ms, vehicles TOT 306 ACT 260 BUF 44)             Step #1200.00 (1ms ~= 1000.00*RT, ~281000.00UPS, TraCI: 1804ms, vehicles TOT 348 ACT 281 BStep #1300.00 (0ms ?*RT. ?UPS, TraCI: 1235ms, vehicles TOT 380 ACT 302 BUF 66)            Step #1400.00 (1ms ~= 1000.00*RT, ~321000.00UPS, TraCI: 2196ms, vehicles TOT 414 ACT 321 BStep #1500.00 (1ms ~= 1000.00*RT, ~343000.00UPS, TraCI: 1767ms, vehicles TOT 446 ACT 343 BStep #1600.00 (1ms ~= 1000.00*RT, ~366000.00UPS, TraCI: 2107ms, vehicles TOT 478 ACT 366 BStep #1700.00 (1ms ~= 1000.00*RT, ~383000.00UPS, TraCI: 1754ms, vehicles TOT 507 ACT 383 BStep #1800.00 (1ms ~= 1000.00*RT, ~400000.00UPS, TraCI: 1196ms, vehicles TOT 525 ACT 400 BStep #1900.00 (1ms ~= 1000.00*RT, ~400000.00UPS, TraCI: 830ms, vehicles TOT 526 ACT 400 BUStep #2000.00 (1ms ~= 1000.00*RT, ~400000.00UPS, TraCI: 671ms, vehicles TOT 526 ACT 400 BUStep #2100.00 (1ms ~= 1000.00*RT, ~400000.00UPS, TraCI: 310ms, vehicles TOT 526 ACT 400 BUStep #2200.00 (1ms ~= 1000.00*RT, ~400000.00UPS, TraCI: 98ms, vehicles TOT 526 ACT 400 BUFStep #2300.00 (0ms ?*RT. ?UPS, TraCI: 97ms, vehicles TOT 526 ACT 400 BUF 0)               Step #2400.00 (0ms ?*RT. ?UPS, TraCI: 83ms, vehicles TOT 526 ACT 400 BUF 0)               Step #2500.00 (0ms ?*RT. ?UPS, TraCI: 76ms, vehicles TOT 526 ACT 400 BUF 0)               Step #2600.00 (0ms ?*RT. ?UPS, TraCI: 76ms, vehicles TOT 526 ACT 400 BUF 0)               Step #2700.00 (0ms ?*RT. ?UPS, TraCI: 77ms, vehicles TOT 526 ACT 400 BUF 0)               Step #2800.00 (0ms ?*RT. ?UPS, TraCI: 105ms, vehicles TOT 526 ACT 400 BUF 0)              Step #2900.00 (0ms ?*RT. ?UPS, TraCI: 78ms, vehicles TOT 526 ACT 400 BUF 0)               Step #3000.00 (0ms ?*RT. ?UPS, TraCI: 79ms, vehicles TOT 526 ACT 400 BUF 0)               
 Retrying in 1 seconds
出現数: {'A1': 363, 'A2': 37}
割合:
  Total: 400
  A1: 363 (90.75%)
  A2: 37 (9.25%)
  B1: 0 (0.00%)
  B2: 0 (0.00%)
mean elapsed_time: 548.7425
OK all vehs arrived 
平均渋滞継続時間: 459.32秒
OK all vehicle abandonment were detected
277
123
===== Simlation Result Summary =====
avg_congestion_duration: 459.32 
arrival_time_by_vehID_dict:{'init_ShelterA_1_0': 210.0, 'init_ShelterA_1_1': 215.0, 'init_ShelterA_1_2': 220.0, 'init_ShelterA_1_3': 228.0, 'init_ShelterA_1_4': 236.0, 'init_ShelterA_1_5': 242.0, 'init_ShelterA_1_6': 247.0, 'init_ShelterA_1_7': 251.0, 'init_ShelterA_1_8': 286.0, 'init_ShelterA_1_9': 293.0, 'init_ShelterA_1_10': 299.0, 'init_ShelterA_1_11': 305.0, 'init_ShelterA_1_12': 312.0, 'init_ShelterA_1_13': 319.0, 'init_ShelterA_1_14': 327.0, 'init_ShelterA_1_15': 336.0, 'init_ShelterA_1_16': 345.0, 'init_ShelterA_1_17': 354.0, 'init_ShelterA_1_19': 363.0, 'init_ShelterA_1_20': 373.0, 'init_ShelterA_1_21': 383.0, 'init_ShelterA_1_22': 392.0, 'init_ShelterA_1_23': 402.0, 'init_ShelterA_2_18': 402.0, 'init_ShelterA_1_24': 412.0, 'init_ShelterA_1_25': 421.0, 'init_ShelterA_1_26': 431.0, 'init_ShelterA_1_27': 441.0, 'init_ShelterA_1_28': 450.0, 'init_ShelterA_1_30': 460.0, 'init_ShelterA_1_31': 470.0, 'init_ShelterA_1_32': 479.0, 'init_ShelterA_2_29': 485.0, 'init_ShelterA_1_33': 489.0, 'init_ShelterA_1_34': 499.0, 'init_ShelterA_1_35': 508.0, 'init_ShelterA_1_36': 518.0, 'init_ShelterA_1_37': 527.0, 'init_ShelterA_1_38': 537.0, 'init_ShelterA_1_39': 546.0, 'init_ShelterA_1_40': 556.0, 'init_ShelterA_1_41': 565.0, 'init_ShelterA_1_42': 575.0, 'init_ShelterA_1_43': 584.0, 'init_ShelterA_1_44': 594.0, 'init_ShelterA_1_58': 596.0, 'init_ShelterA_1_45': 603.0, 'init_ShelterA_1_46': 613.0, 'init_ShelterA_1_47': 622.0, 'init_ShelterA_1_61': 625.0, 'init_ShelterA_1_62': 627.0, 'init_ShelterA_1_48': 632.0, 'init_ShelterA_1_49': 641.0, 'init_ShelterA_1_64': 648.0, 'init_ShelterA_1_50': 651.0, 'init_ShelterA_1_65': 657.0, 'init_ShelterA_1_66': 659.0, 'init_ShelterA_1_51': 660.0, 'init_ShelterA_1_68': 663.0, 'init_ShelterA_1_70': 665.0, 'init_ShelterA_1_71': 668.0, 'init_ShelterA_1_52': 669.0, 'init_ShelterA_1_72': 671.0, 'init_ShelterA_1_74': 674.0, 'init_ShelterA_1_75': 677.0, 'init_ShelterA_1_53': 678.0, 'init_ShelterA_1_76': 680.0, 'init_ShelterA_1_54': 687.0, 'init_ShelterA_1_55': 697.0, 'init_ShelterA_1_56': 706.0, 'init_ShelterA_2_57': 708.0, 'init_ShelterA_1_59': 718.0, 'init_ShelterA_1_60': 727.0, 'init_ShelterA_1_81': 735.0, 'init_ShelterA_1_63': 736.0, 'init_ShelterA_1_84': 737.0, 'init_ShelterA_2_67': 739.0, 'init_ShelterA_1_69': 749.0, 'init_ShelterA_1_86': 754.0, 'init_ShelterA_1_73': 758.0, 'init_ShelterA_1_87': 758.0, 'init_ShelterA_1_88': 760.0, 'init_ShelterA_1_89': 764.0, 'init_ShelterA_1_90': 766.0, 'init_ShelterA_1_77': 768.0, 'init_ShelterA_1_91': 769.0, 'init_ShelterA_1_92': 772.0, 'init_ShelterA_1_94': 775.0, 'init_ShelterA_1_78': 777.0, 'init_ShelterA_1_79': 787.0, 'init_ShelterA_1_80': 796.0, 'init_ShelterA_1_95': 800.0, 'init_ShelterA_1_82': 805.0, 'init_ShelterA_1_83': 815.0, 'init_ShelterA_1_96': 817.0, 'init_ShelterA_1_85': 823.0, 'init_ShelterA_2_93': 826.0, 'init_ShelterA_2_97': 828.0, 'init_ShelterA_1_103': 835.0, 'init_ShelterA_1_104': 840.0, 'init_ShelterA_1_98': 840.0, 'init_ShelterA_1_99': 842.0, 'init_ShelterA_1_115': 845.0, 'init_ShelterA_2_125': 847.0, 'init_ShelterA_1_100': 850.0, 'init_ShelterA_1_101': 852.0, 'init_ShelterA_1_102': 854.0, 'init_ShelterA_1_105': 857.0, 'init_ShelterA_1_106': 861.0, 'init_ShelterA_1_107': 864.0, 'init_ShelterA_1_108': 867.0, 'init_ShelterA_1_109': 869.0, 'init_ShelterA_1_110': 871.0, 'init_ShelterA_1_111': 875.0, 'init_ShelterA_2_129': 900.0, 'init_ShelterA_1_112': 901.0, 'init_ShelterA_1_113': 903.0, 'init_ShelterA_1_130': 916.0, 'init_ShelterA_1_114': 918.0, 'init_ShelterA_2_134': 918.0, 'init_ShelterA_1_116': 920.0, 'init_ShelterA_1_117': 923.0, 'init_ShelterA_1_118': 925.0, 'init_ShelterA_1_119': 928.0, 'init_ShelterA_1_141': 950.0, 'init_ShelterA_1_120': 956.0, 'init_ShelterA_1_142': 956.0, 'init_ShelterA_1_121': 958.0, 'init_ShelterA_1_122': 960.0, 'init_ShelterA_1_143': 960.0, 'init_ShelterA_1_123': 962.0, 'init_ShelterA_1_124': 965.0, 'init_ShelterA_1_126': 968.0, 'init_ShelterA_1_127': 971.0, 'init_ShelterA_1_128': 974.0, 'init_ShelterA_2_147': 996.0, 'init_ShelterA_2_148': 997.0, 'init_ShelterA_1_149': 1013.0, 'init_ShelterA_1_151': 1017.0, 'init_ShelterA_1_131': 1023.0, 'init_ShelterA_1_132': 1025.0, 'init_ShelterA_1_156': 1029.0, 'init_ShelterA_2_158': 1032.0, 'init_ShelterA_1_133': 1035.0, 'init_ShelterA_1_135': 1038.0, 'init_ShelterA_1_136': 1039.0, 'init_ShelterA_1_137': 1042.0, 'init_ShelterA_1_138': 1045.0, 'init_ShelterA_1_139': 1047.0, 'init_ShelterA_1_140': 1050.0, 'init_ShelterA_1_144': 1053.0, 'init_ShelterA_1_145': 1056.0, 'init_ShelterA_1_146': 1078.0, 'init_ShelterA_2_164': 1083.0, 'init_ShelterA_1_150': 1095.0, 'init_ShelterA_1_166': 1102.0, 'init_ShelterA_2_174': 1106.0, 'init_ShelterA_1_152': 1109.0, 'init_ShelterA_1_153': 1110.0, 'init_ShelterA_1_154': 1112.0, 'init_ShelterA_1_155': 1115.0, 'init_ShelterA_1_157': 1118.0, 'init_ShelterA_1_159': 1121.0, 'init_ShelterA_1_176': 1122.0, 'init_ShelterA_1_160': 1124.0, 'init_ShelterA_1_177': 1134.0, 'init_ShelterA_1_161': 1138.0, 'init_ShelterA_1_179': 1138.0, 'init_ShelterA_1_162': 1140.0, 'init_ShelterA_1_163': 1193.0, 'init_ShelterA_1_165': 1195.0, 'init_ShelterA_1_167': 1197.0, 'init_ShelterA_1_168': 1199.0, 'init_ShelterA_1_182': 1199.0, 'init_ShelterA_1_169': 1202.0, 'init_ShelterA_1_170': 1205.0, 'init_ShelterA_1_183': 1206.0, 'init_ShelterA_1_171': 1208.0, 'init_ShelterA_1_172': 1211.0, 'init_ShelterA_1_209': 1211.0, 'init_ShelterA_1_173': 1214.0, 'init_ShelterA_1_216': 1215.0, 'init_ShelterA_1_175': 1217.0, 'init_ShelterA_1_178': 1220.0, 'init_ShelterA_1_180': 1266.0, 'init_ShelterA_1_181': 1268.0, 'init_ShelterA_1_184': 1270.0, 'init_ShelterA_1_185': 1298.0, 'newveh_ShelterA_2_186_0': 1317.0, 'init_ShelterA_1_211': 1322.0, 'init_ShelterA_1_213': 1324.0, 'init_ShelterA_1_214': 1326.0, 'init_ShelterA_1_215': 1328.0, 'newveh_ShelterA_2_187_1': 1346.0, 'newveh_ShelterA_2_189_3': 1352.0, 'newveh_ShelterA_2_188_2': 1356.0, 'newveh_ShelterA_1_212_24': 1368.0, 'newveh_ShelterA_1_208_23': 1373.0, 'newveh_ShelterA_2_190_4': 1373.0, 'newveh_ShelterA_2_191_5': 1378.0, 'newveh_ShelterA_2_193_7': 1391.0, 'init_ShelterA_1_229': 1396.0, 'newveh_ShelterA_2_192_6': 1399.0, 'init_ShelterA_1_232': 1401.0, 'newveh_ShelterA_2_194_8': 1406.0, 'newveh_ShelterA_2_195_9': 1413.0, 'newveh_ShelterA_2_196_10': 1420.0, 'newveh_ShelterA_2_197_11': 1428.0, 'newveh_ShelterA_2_198_12': 1437.0, 'newveh_ShelterA_2_199_13': 1446.0, 'newveh_ShelterA_2_200_14': 1455.0, 'newveh_ShelterA_1_221_26': 1460.0, 'newveh_ShelterA_2_201_15': 1464.0, 'init_ShelterA_1_249': 1470.0, 'newveh_ShelterA_2_202_16': 1474.0, 'newveh_ShelterA_1_222_27': 1478.0, 'init_ShelterA_1_259': 1483.0, 'newveh_ShelterA_2_203_17': 1484.0, 'newveh_ShelterA_2_204_18': 1493.0, 'newveh_ShelterA_2_205_19': 1503.0, 'newveh_ShelterA_2_206_20': 1513.0, 'newveh_ShelterA_2_207_21': 1522.0, 'newveh_ShelterA_2_210_22': 1532.0, 'init_ShelterA_1_265': 1547.0, 'newveh_ShelterA_1_238_35': 1552.0, 'newveh_ShelterA_2_217_25': 1553.0, 'init_ShelterA_1_218': 1555.0, 'init_ShelterA_1_219': 1557.0, 'init_ShelterA_1_220': 1559.0, 'init_ShelterA_1_223': 1561.0, 'init_ShelterA_1_226': 1564.0, 'init_ShelterA_1_227': 1567.0, 'init_ShelterA_1_230': 1570.0, 'init_ShelterA_1_231': 1573.0, 'init_ShelterA_1_233': 1576.0, 'init_ShelterA_1_243': 1579.0, 'newveh_ShelterA_1_228_34': 1579.0, 'init_ShelterA_1_244': 1582.0, 'newveh_ShelterA_1_257_40': 1584.0, 'init_ShelterA_1_245': 1585.0, 'init_ShelterA_1_246': 1587.0, 'init_ShelterA_1_277': 1589.0, 'init_ShelterA_1_247': 1590.0, 'init_ShelterA_1_248': 1593.0, 'init_ShelterA_1_250': 1596.0, 'init_ShelterA_1_251': 1599.0, 'init_ShelterA_1_252': 1602.0, 'init_ShelterA_1_255': 1605.0, 'init_ShelterA_1_256': 1608.0, 'init_ShelterA_1_258': 1611.0, 'init_ShelterA_1_261': 1614.0, 'init_ShelterA_1_262': 1616.0, 'newveh_ShelterA_2_264_76': 1622.0, 'newveh_ShelterA_2_290_83': 1640.0, 'init_ShelterA_1_263': 1642.0, 'init_ShelterA_1_292': 1649.0, 'init_ShelterA_1_293': 1654.0, 'newveh_ShelterA_2_224_28': 1657.0, 'init_ShelterA_1_295': 1659.0, 'newveh_ShelterA_2_237_33': 1663.0, 'init_ShelterA_1_310': 1670.0, 'newveh_ShelterA_2_236_32': 1672.0, 'newveh_ShelterA_1_269_47': 1675.0, 'newveh_ShelterA_2_235_31': 1679.0, 'newveh_ShelterA_1_278_51': 1680.0, 'newveh_ShelterA_2_234_30': 1684.0, 'newveh_ShelterA_2_242_39': 1690.0, 'newveh_ShelterA_2_241_38': 1697.0, 'newveh_ShelterA_2_240_37': 1704.0, 'newveh_ShelterA_2_239_36': 1712.0, 'newveh_ShelterA_2_225_29': 1717.0, 'init_ShelterA_1_275': 1719.0, 'newveh_ShelterA_1_276_50': 1725.0, 'newveh_ShelterA_2_312_95': 1732.0, 'newveh_ShelterA_2_311_94': 1736.0, 'newveh_ShelterA_2_267_45': 1747.0, 'newveh_ShelterA_1_284_61': 1750.0, 'newveh_ShelterA_1_283_60': 1755.0, 'newveh_ShelterA_2_266_44': 1755.0, 'init_ShelterA_1_294': 1757.0, 'newveh_ShelterA_2_260_43': 1764.0, 'newveh_ShelterA_2_253_41': 1773.0, 'newveh_ShelterA_2_254_42': 1794.0, 'init_ShelterA_1_296': 1796.0, 'init_ShelterA_1_306': 1799.0, 'init_ShelterA_1_307': 1801.0, 'init_ShelterA_1_309': 1803.0, 'newveh_ShelterA_2_273_46': 1809.0, 'newveh_ShelterA_2_268_48': 1814.0, 'newveh_ShelterA_2_308_93': 1819.0, 'newveh_ShelterA_1_291_66': 1821.0, 'newveh_ShelterA_2_313_96': 1823.0, 'init_ShelterA_2_322': 1824.0, 'newveh_ShelterA_2_320_103': 1829.0, 'newveh_ShelterA_2_270_49': 1833.0, 'newveh_ShelterA_2_282_56': 1837.0, 'newveh_ShelterA_1_299_67': 1845.0, 'newveh_ShelterA_2_281_55': 1850.0, 'newveh_ShelterA_2_280_54': 1859.0, 'newveh_ShelterA_2_279_53': 1864.0, 'newveh_ShelterA_2_272_52': 1868.0, 'newveh_ShelterA_2_274_58': 1874.0, 'newveh_ShelterA_2_271_57': 1879.0, 'newveh_ShelterA_2_285_59': 1885.0, 'newveh_ShelterA_2_289_65': 1891.0, 'newveh_ShelterA_2_288_64': 1899.0, 'newveh_ShelterA_2_287_63': 1903.0, 'newveh_ShelterA_2_286_62': 1909.0, 'init_ShelterA_1_321': 1911.0, 'init_ShelterA_1_323': 1913.0, 'init_ShelterA_1_324': 1915.0, 'init_ShelterA_1_325': 1920.0, 'init_ShelterA_1_326': 1922.0, 'init_ShelterA_1_329': 1924.0, 'init_ShelterA_1_331': 1926.0, 'init_ShelterA_1_334': 1928.0, 'init_ShelterA_1_335': 1933.0, 'init_ShelterA_1_336': 1935.0, 'init_ShelterA_1_337': 1945.0, 'init_ShelterA_1_338': 1947.0, 'init_ShelterA_1_343': 1949.0, 'newveh_ShelterA_2_358_123': 1999.0, 'newveh_ShelterA_1_318_77': 2000.0, 'init_ShelterA_2_364': 2002.0, 'init_ShelterA_2_366': 2005.0, 'newveh_ShelterA_2_355_122': 2009.0, 'init_ShelterA_1_344': 2011.0, 'init_ShelterA_1_367': 2019.0, 'newveh_ShelterA_2_301_68': 2024.0, 'init_ShelterA_1_372': 2025.0, 'init_ShelterA_1_345': 2027.0, 'init_ShelterA_1_346': 2029.0, 'init_ShelterA_1_373': 2029.0, 'init_ShelterA_1_347': 2031.0, 'newveh_ShelterA_2_297_69': 2038.0, 'newveh_ShelterA_2_305_75': 2043.0, 'newveh_ShelterA_2_304_74': 2049.0, 'newveh_ShelterA_2_303_73': 2057.0, 'newveh_ShelterA_2_302_72': 2066.0, 'newveh_ShelterA_2_300_71': 2075.0, 'init_ShelterA_1_381': 2094.0, 'newveh_ShelterA_2_298_70': 2096.0, 'init_ShelterA_1_348': 2099.0, 'init_ShelterA_1_351': 2101.0, 'init_ShelterA_1_384': 2101.0, 'init_ShelterA_1_353': 2103.0, 'init_ShelterA_1_354': 2106.0, 'init_ShelterA_1_385': 2106.0, 'init_ShelterA_1_356': 2108.0, 'init_ShelterA_1_387': 2112.0, 'init_ShelterA_1_388': 2119.0, 'newveh_ShelterA_2_379_124': 2120.0, 'init_ShelterA_1_357': 2122.0, 'newveh_ShelterA_1_339_84': 2123.0, 'init_ShelterA_1_360': 2124.0, 'init_ShelterA_1_361': 2126.0, 'newveh_ShelterA_1_349_97': 2128.0, 'newveh_ShelterA_2_314_78': 2134.0, 'init_ShelterA_1_365': 2136.0, 'newveh_ShelterA_2_315_79': 2145.0, 'newveh_ShelterA_2_316_80': 2153.0, 'newveh_ShelterA_2_319_82': 2163.0, 'newveh_ShelterA_2_317_81': 2173.0, 'init_ShelterA_1_377': 2175.0, 'init_ShelterA_1_378': 2177.0, 'newveh_ShelterA_2_389_125': 2189.0, 'newveh_ShelterA_1_368_104': 2190.0, 'init_ShelterA_1_380': 2191.0, 'init_ShelterA_1_382': 2193.0, 'init_ShelterA_1_386': 2195.0, 'newveh_ShelterA_1_383_111': 2196.0, 'newveh_ShelterA_1_396_112': 2200.0, 'newveh_ShelterA_2_327_85': 2204.0, 'newveh_ShelterA_2_342_92': 2210.0, 'newveh_ShelterA_2_341_91': 2215.0, 'newveh_ShelterA_2_340_90': 2221.0, 'newveh_ShelterA_2_359_99': 2227.0, 'newveh_ShelterA_2_333_89': 2235.0, 'newveh_ShelterA_2_332_88': 2239.0, 'newveh_ShelterA_2_330_87': 2244.0, 'newveh_ShelterA_2_328_86': 2284.0, 'newveh_ShelterA_2_350_98': 2292.0, 'newveh_ShelterA_2_363_102': 2298.0, 'newveh_ShelterA_2_362_101': 2305.0, 'newveh_ShelterA_2_352_100': 2312.0, 'newveh_ShelterA_2_369_105': 2319.0, 'newveh_ShelterA_2_376_110': 2327.0, 'newveh_ShelterA_2_375_109': 2336.0, 'newveh_ShelterA_2_374_108': 2345.0, 'newveh_ShelterA_2_371_107': 2354.0, 'newveh_ShelterA_2_370_106': 2363.0, 'newveh_ShelterA_2_391_113': 2371.0, 'newveh_ShelterA_2_399_116': 2379.0, 'newveh_ShelterA_2_398_115': 2386.0, 'newveh_ShelterA_2_397_114': 2390.0, 'newveh_ShelterA_2_395_121': 2395.0, 'newveh_ShelterA_2_394_120': 2403.0, 'newveh_ShelterA_2_393_119': 2412.0, 'newveh_ShelterA_2_392_118': 2417.0, 'newveh_ShelterA_2_390_117': 2421.0}
vehicle_abandant_time_by_pedestrianID_dict:{}
walking_distance_by_pedestrianID_dict:{}
route_change_time_by_vehID_dict:{'init_ShelterA_2_57': 420.0, 'init_ShelterA_2_67': 420.0, 'init_ShelterA_1_58': 430.0, 'init_ShelterA_1_64': 440.0, 'init_ShelterA_1_66': 440.0, 'init_ShelterA_1_62': 450.0, 'init_ShelterA_1_65': 450.0, 'init_ShelterA_1_61': 460.0, 'init_ShelterA_1_68': 460.0, 'init_ShelterA_1_70': 460.0, 'init_ShelterA_1_71': 490.0, 'init_ShelterA_1_72': 490.0, 'init_ShelterA_1_74': 500.0, 'init_ShelterA_1_75': 500.0, 'init_ShelterA_1_76': 500.0, 'init_ShelterA_1_81': 520.0, 'init_ShelterA_1_84': 520.0, 'init_ShelterA_1_86': 520.0, 'init_ShelterA_1_87': 520.0, 'init_ShelterA_1_88': 520.0, 'init_ShelterA_1_89': 580.0, 'init_ShelterA_1_90': 580.0, 'init_ShelterA_1_92': 580.0, 'init_ShelterA_1_91': 590.0, 'init_ShelterA_1_94': 590.0, 'init_ShelterA_1_95': 590.0, 'init_ShelterA_2_93': 590.0, 'init_ShelterA_2_97': 590.0, 'init_ShelterA_1_100': 600.0, 'init_ShelterA_1_101': 600.0, 'init_ShelterA_1_96': 600.0, 'init_ShelterA_1_98': 600.0, 'init_ShelterA_1_99': 600.0, 'init_ShelterA_1_102': 610.0, 'init_ShelterA_1_105': 610.0, 'init_ShelterA_1_106': 610.0, 'init_ShelterA_1_107': 670.0, 'init_ShelterA_1_109': 670.0, 'init_ShelterA_1_110': 670.0, 'init_ShelterA_1_111': 680.0, 'init_ShelterA_1_112': 680.0, 'init_ShelterA_1_113': 680.0, 'init_ShelterA_1_116': 680.0, 'init_ShelterA_1_108': 690.0, 'init_ShelterA_1_114': 690.0, 'init_ShelterA_1_117': 690.0, 'init_ShelterA_1_118': 690.0, 'init_ShelterA_1_119': 690.0, 'init_ShelterA_1_120': 690.0, 'init_ShelterA_1_122': 700.0, 'init_ShelterA_2_125': 700.0, 'init_ShelterA_1_124': 730.0, 'init_ShelterA_1_121': 740.0, 'init_ShelterA_1_126': 750.0, 'init_ShelterA_1_127': 750.0, 'init_ShelterA_2_129': 750.0, 'init_ShelterA_1_123': 760.0, 'init_ShelterA_1_128': 760.0, 'init_ShelterA_1_132': 760.0, 'init_ShelterA_1_133': 770.0, 'init_ShelterA_2_134': 770.0, 'init_ShelterA_1_131': 780.0, 'init_ShelterA_1_135': 780.0, 'init_ShelterA_1_136': 780.0, 'init_ShelterA_1_137': 780.0, 'init_ShelterA_1_138': 780.0, 'init_ShelterA_1_140': 780.0, 'init_ShelterA_1_186': 810.0, 'init_ShelterA_1_187': 810.0, 'init_ShelterA_1_188': 810.0, 'init_ShelterA_1_189': 810.0, 'init_ShelterA_1_190': 810.0, 'init_ShelterA_1_191': 810.0, 'init_ShelterA_1_192': 810.0, 'init_ShelterA_1_193': 810.0, 'init_ShelterA_1_194': 810.0, 'init_ShelterA_1_195': 810.0, 'init_ShelterA_1_196': 810.0, 'init_ShelterA_1_197': 810.0, 'init_ShelterA_1_198': 810.0, 'init_ShelterA_1_199': 810.0, 'init_ShelterA_1_200': 810.0, 'init_ShelterA_1_201': 810.0, 'init_ShelterA_1_202': 810.0, 'init_ShelterA_1_203': 810.0, 'init_ShelterA_1_204': 810.0, 'init_ShelterA_1_205': 810.0, 'init_ShelterA_1_206': 810.0, 'init_ShelterA_1_207': 810.0, 'init_ShelterA_1_210': 810.0, 'init_ShelterA_2_208': 810.0, 'init_ShelterA_2_212': 810.0, 'init_ShelterA_1_217': 830.0, 'init_ShelterA_1_145': 840.0, 'init_ShelterA_1_139': 850.0, 'init_ShelterA_1_144': 850.0, 'init_ShelterA_2_147': 850.0, 'init_ShelterA_2_148': 850.0, 'init_ShelterA_1_146': 860.0, 'init_ShelterA_1_150': 860.0, 'init_ShelterA_1_152': 860.0, 'init_ShelterA_1_153': 860.0, 'init_ShelterA_1_154': 860.0, 'init_ShelterA_1_155': 860.0, 'init_ShelterA_1_157': 860.0, 'init_ShelterA_1_159': 860.0, 'init_ShelterA_1_160': 860.0, 'init_ShelterA_1_161': 860.0, 'init_ShelterA_2_158': 860.0, 'init_ShelterA_1_162': 910.0, 'init_ShelterA_1_168': 930.0, 'init_ShelterA_2_164': 930.0, 'init_ShelterA_2_221': 930.0, 'init_ShelterA_1_163': 940.0, 'init_ShelterA_1_165': 940.0, 'init_ShelterA_1_167': 940.0, 'init_ShelterA_1_169': 940.0, 'init_ShelterA_1_173': 940.0, 'init_ShelterA_1_175': 940.0, 'init_ShelterA_2_174': 940.0, 'init_ShelterA_2_222': 940.0, 'init_ShelterA_1_170': 950.0, 'init_ShelterA_1_172': 950.0, 'init_ShelterA_1_178': 950.0, 'init_ShelterA_1_224': 980.0, 'init_ShelterA_1_225': 980.0, 'init_ShelterA_1_234': 980.0, 'init_ShelterA_1_235': 980.0, 'init_ShelterA_1_236': 980.0, 'init_ShelterA_1_237': 980.0, 'init_ShelterA_2_228': 980.0, 'init_ShelterA_2_238': 980.0, 'init_ShelterA_1_239': 990.0, 'init_ShelterA_1_240': 990.0, 'init_ShelterA_1_241': 990.0, 'init_ShelterA_1_242': 990.0, 'init_ShelterA_1_171': 1000.0, 'init_ShelterA_1_180': 1020.0, 'init_ShelterA_1_185': 1020.0, 'init_ShelterA_1_181': 1030.0, 'init_ShelterA_1_184': 1030.0, 'init_ShelterA_1_213': 1030.0, 'init_ShelterA_1_215': 1030.0, 'init_ShelterA_1_214': 1040.0, 'init_ShelterA_2_257': 1040.0, 'init_ShelterA_1_211': 1050.0, 'init_ShelterA_1_253': 1070.0, 'init_ShelterA_1_254': 1070.0, 'init_ShelterA_1_260': 1070.0, 'init_ShelterA_1_266': 1070.0, 'init_ShelterA_1_267': 1070.0, 'init_ShelterA_1_273': 1120.0, 'init_ShelterA_2_269': 1120.0, 'init_ShelterA_1_268': 1130.0, 'init_ShelterA_1_270': 1130.0, 'init_ShelterA_2_276': 1130.0, 'init_ShelterA_2_278': 1130.0, 'init_ShelterA_1_272': 1140.0, 'init_ShelterA_1_279': 1140.0, 'init_ShelterA_1_280': 1140.0, 'init_ShelterA_1_281': 1140.0, 'init_ShelterA_1_282': 1140.0, 'init_ShelterA_1_271': 1150.0, 'init_ShelterA_1_274': 1150.0, 'init_ShelterA_1_285': 1150.0, 'init_ShelterA_2_283': 1150.0, 'init_ShelterA_2_284': 1150.0, 'init_ShelterA_1_286': 1160.0, 'init_ShelterA_1_287': 1160.0, 'init_ShelterA_1_288': 1160.0, 'init_ShelterA_1_289': 1160.0, 'init_ShelterA_2_291': 1170.0, 'init_ShelterA_1_218': 1200.0, 'init_ShelterA_1_220': 1200.0, 'init_ShelterA_1_227': 1200.0, 'init_ShelterA_1_219': 1210.0, 'init_ShelterA_1_245': 1210.0, 'init_ShelterA_1_244': 1220.0, 'init_ShelterA_1_246': 1220.0, 'init_ShelterA_1_247': 1220.0, 'init_ShelterA_2_299': 1220.0, 'init_ShelterA_1_243': 1230.0, 'init_ShelterA_1_301': 1230.0, 'init_ShelterA_1_297': 1240.0, 'init_ShelterA_1_298': 1240.0, 'init_ShelterA_1_300': 1240.0, 'init_ShelterA_1_302': 1240.0, 'init_ShelterA_1_303': 1240.0, 'init_ShelterA_1_304': 1240.0, 'init_ShelterA_1_305': 1240.0, 'init_ShelterA_1_248': 1250.0, 'init_ShelterA_1_250': 1250.0, 'init_ShelterA_1_258': 1260.0, 'init_ShelterA_1_223': 1270.0, 'init_ShelterA_1_226': 1270.0, 'init_ShelterA_1_230': 1270.0, 'init_ShelterA_1_231': 1270.0, 'init_ShelterA_1_233': 1270.0, 'init_ShelterA_1_264': 1270.0, 'init_ShelterA_2_318': 1290.0, 'init_ShelterA_1_314': 1310.0, 'init_ShelterA_1_315': 1310.0, 'init_ShelterA_1_316': 1320.0, 'init_ShelterA_1_317': 1320.0, 'init_ShelterA_1_319': 1320.0, 'init_ShelterA_1_290': 1350.0, 'init_ShelterA_1_251': 1360.0, 'init_ShelterA_1_252': 1360.0, 'init_ShelterA_1_256': 1360.0, 'init_ShelterA_1_261': 1370.0, 'init_ShelterA_1_262': 1370.0, 'init_ShelterA_1_263': 1380.0, 'init_ShelterA_1_294': 1380.0, 'init_ShelterA_1_255': 1390.0, 'init_ShelterA_2_339': 1390.0, 'init_ShelterA_1_327': 1400.0, 'init_ShelterA_1_328': 1400.0, 'init_ShelterA_1_330': 1400.0, 'init_ShelterA_1_332': 1400.0, 'init_ShelterA_1_333': 1400.0, 'init_ShelterA_1_340': 1400.0, 'init_ShelterA_1_341': 1400.0, 'init_ShelterA_1_342': 1400.0, 'init_ShelterA_1_275': 1420.0, 'init_ShelterA_1_308': 1440.0, 'init_ShelterA_1_311': 1440.0, 'init_ShelterA_1_312': 1440.0, 'init_ShelterA_1_313': 1450.0, 'init_ShelterA_2_349': 1470.0, 'init_ShelterA_1_350': 1490.0, 'init_ShelterA_1_359': 1490.0, 'init_ShelterA_1_352': 1500.0, 'init_ShelterA_1_362': 1500.0, 'init_ShelterA_1_363': 1500.0, 'init_ShelterA_1_320': 1530.0, 'init_ShelterA_1_307': 1540.0, 'init_ShelterA_1_309': 1540.0, 'init_ShelterA_1_296': 1550.0, 'init_ShelterA_1_306': 1550.0, 'init_ShelterA_2_368': 1560.0, 'init_ShelterA_1_369': 1580.0, 'init_ShelterA_1_370': 1580.0, 'init_ShelterA_1_371': 1580.0, 'init_ShelterA_1_374': 1580.0, 'init_ShelterA_1_375': 1580.0, 'init_ShelterA_1_376': 1580.0, 'init_ShelterA_2_383': 1590.0, 'init_ShelterA_2_322': 1600.0, 'init_ShelterA_1_323': 1610.0, 'init_ShelterA_1_325': 1610.0, 'init_ShelterA_2_396': 1630.0, 'init_ShelterA_1_391': 1640.0, 'init_ShelterA_1_397': 1640.0, 'init_ShelterA_1_398': 1640.0, 'init_ShelterA_1_399': 1640.0, 'init_ShelterA_1_321': 1650.0, 'init_ShelterA_1_390': 1650.0, 'init_ShelterA_1_392': 1650.0, 'init_ShelterA_1_393': 1650.0, 'init_ShelterA_1_394': 1650.0, 'init_ShelterA_1_395': 1650.0, 'init_ShelterA_1_347': 1700.0, 'init_ShelterA_1_355': 1700.0, 'init_ShelterA_1_358': 1700.0, 'init_ShelterA_1_346': 1710.0, 'init_ShelterA_1_335': 1720.0, 'init_ShelterA_1_337': 1720.0, 'init_ShelterA_1_343': 1720.0, 'init_ShelterA_1_324': 1730.0, 'init_ShelterA_1_326': 1730.0, 'init_ShelterA_1_329': 1730.0, 'init_ShelterA_1_331': 1730.0, 'init_ShelterA_1_334': 1730.0, 'init_ShelterA_1_336': 1730.0, 'init_ShelterA_1_338': 1730.0, 'init_ShelterA_1_344': 1730.0, 'init_ShelterA_1_345': 1730.0, 'init_ShelterA_2_366': 1730.0, 'init_ShelterA_2_364': 1760.0, 'init_ShelterA_1_360': 1770.0, 'init_ShelterA_1_361': 1770.0, 'init_ShelterA_1_348': 1780.0, 'init_ShelterA_1_351': 1780.0, 'init_ShelterA_1_353': 1780.0, 'init_ShelterA_1_357': 1780.0, 'init_ShelterA_1_365': 1780.0, 'init_ShelterA_1_379': 1780.0, 'init_ShelterA_1_354': 1790.0, 'init_ShelterA_1_356': 1820.0, 'init_ShelterA_1_386': 1860.0, 'init_ShelterA_1_389': 1860.0, 'init_ShelterA_1_380': 1870.0, 'init_ShelterA_1_382': 1870.0, 'init_ShelterA_1_377': 1910.0, 'init_ShelterA_1_378': 1910.0}
pedestrian_count:0
route_changed_vehicle_count:295
route_change_event_count:295
rate_vehicle_abandonment:0.00%
wrong_way_driving_count:0
vehicle_abandonment_count:0
normalcy_bias_route_change_count:205
majority_bias_route_change_count:90
lane_changed_vehicle_count:0
info_obtained_lanechange_count:0
elapsed_time_lanechange_count:0
majority_bias_lanechange_count:0

=== Job Result ===
end=2026-07-13T00:59:41+0900
elapsed_seconds=406
exit_code=0
status=SUCCESS
